                                  SEAWAT Version 4
      U.S. GEOLOGICAL SURVEY MODULAR FINITE-DIFFERENCE GROUND-WATER FLOW MODEL
                           VERSION 4.00.05 10/19/2012


 This model run combines GLOBAL and LIST output into this single file.

 GLOBAL LISTING FILE: test.list
                         UNIT    2

 OPENING test.dis
 FILE TYPE:DIS   UNIT   11   STATUS:OLD    
 FORMAT:FORMATTED              ACCESS:SEQUENTIAL          

 OPENING test.bas
 FILE TYPE:BAS6   UNIT   13   STATUS:OLD    
 FORMAT:FORMATTED              ACCESS:SEQUENTIAL          

 OPENING test.lpf
 FILE TYPE:LPF   UNIT   15   STATUS:OLD    
 FORMAT:FORMATTED              ACCESS:SEQUENTIAL          

 OPENING test.pcg
 FILE TYPE:PCG   UNIT   27   STATUS:OLD    
 FORMAT:FORMATTED              ACCESS:SEQUENTIAL          

 OPENING test.oc
 FILE TYPE:OC   UNIT   14   STATUS:OLD    
 FORMAT:FORMATTED              ACCESS:SEQUENTIAL          

 OPENING test.btn
 FILE TYPE:BTN   UNIT   31   STATUS:OLD    
 FORMAT:FORMATTED              ACCESS:SEQUENTIAL          

 OPENING test.adv
 FILE TYPE:ADV   UNIT   32   STATUS:OLD    
 FORMAT:FORMATTED              ACCESS:SEQUENTIAL          

 OPENING test.dsp
 FILE TYPE:DSP   UNIT   33   STATUS:OLD    
 FORMAT:FORMATTED              ACCESS:SEQUENTIAL          

 OPENING test.gcg
 FILE TYPE:GCG   UNIT   35   STATUS:OLD    
 FORMAT:FORMATTED              ACCESS:SEQUENTIAL          

 OPENING test.ssm
 FILE TYPE:SSM   UNIT   34   STATUS:OLD    
 FORMAT:FORMATTED              ACCESS:SEQUENTIAL          

 OPENING test.chd
 FILE TYPE:CHD   UNIT   24   STATUS:OLD    
 FORMAT:FORMATTED              ACCESS:SEQUENTIAL          

 OPENING test.vdf
 FILE TYPE:VDF   UNIT   37   STATUS:OLD    
 FORMAT:FORMATTED              ACCESS:SEQUENTIAL          

 OPENING test.cbc
 FILE TYPE:DATA(BINARY)   UNIT   53   STATUS:REPLACE
 FORMAT:UNFORMATTED            ACCESS:STREAM              

 OPENING test.hds
 FILE TYPE:DATA(BINARY)   UNIT   51   STATUS:REPLACE
 FORMAT:UNFORMATTED            ACCESS:STREAM              

 THE FREE FORMAT OPTION HAS BEEN SELECTED

 DISCRETIZATION INPUT DATA READ FROM UNIT   11
 # DIS package for  SEAWAT, generated by Flopy.
   40 LAYERS         3 ROWS        70 COLUMNS
    2 STRESS PERIOD(S) IN SIMULATION
 MODEL TIME UNIT IS DAYS
 MODEL LENGTH UNIT IS METERS
  ----- 
 | M T | ## BTN for MT3DMS, generated by Flopy.                                          
 | 3 D | ##                                                                              
  ----- 
 THE TRANSPORT MODEL CONSISTS OF    40 LAYER(S)    3 ROW(S)   70 COLUMN(S)
 NUMBER OF STRESS PERIOD(S) FOR TRANSPORT SIMULATION =    2
 NUMBER OF ALL COMPONENTS INCLUDED IN SIMULATION =    1
 NUMBER OF MOBILE COMPONENTS INCLUDED IN SIMULATION =    1
 UNIT FOR TIME IS D   ;  UNIT FOR LENGTH IS M   ;  UNIT FOR MASS IS KG  
 OPTIONAL PACKAGES INCLUDED IN CURRENT SIMULATION:
  o ADV   ON UNIT 32
  o DSP   ON UNIT 33
  o SSM   ON UNIT 34
  o GCG   ON UNIT 35


 VDF -- VARIABLE DENSITY FLOW, VERSION 1, 2/13/2004
         INPUT READ FROM UNIT 37

 COUPLING BETWEEN FLOW AND TRANSPORT IS EXPLICIT
 VARIABLE-DENSITY WATER-TABLE CORRECTIONS NOT ADDED
 MT3DMS SPECIES USED IN EQUATION OF STATE FOR FLUID DENSITY:          1
 AN UPSTREAM-WEIGHTED ALGORITHM IS USED TO CALCULATE FLUID DENSITY TERMS THAT CONSERVE MASS
  1000.     REFERENCE DENSITY
 0.7143     DENSITY SLOPE FOR EQUATION OF STATE
 DENSITY EQUATION OF STATE
 RHO =     1000.00    
  + 0.7143     * ( CONC(   1) -  0.000     )



 FIRSTDT SPECIFIED BY USER IN THE VDF FILE IS:   0.1000000E-02
 THE GROUND-WATER TRANSPORT PROCESS IS INACTIVE

 THE OBSERVATION PROCESS IS INACTIVE
 THE SENSITIVITY PROCESS IS INACTIVE
 THE PARAMETER-ESTIMATION PROCESS IS INACTIVE

 MODE: FORWARD

  Confining bed flag for each layer:
   0   0   0   0   0   0   0   0   0   0   0   0   0   0   0   0   0   0   0   0
   0   0   0   0   0   0   0   0   0   0   0   0   0   0   0   0   0   0   0   0

      75673  ELEMENTS OF GX ARRAY USED OUT OF      75673
       8400  ELEMENTS OF GZ ARRAY USED OUT OF       8400
       8400  ELEMENTS OF IG ARRAY USED OUT OF       8400

                     DELR =   1.00000    

                     DELC =   1.00000    

 TOP ELEVATION OF LAYER 1 =   20.0000    

   MODEL LAYER BOTTOM EL. =   19.5000     FOR LAYER   1

   MODEL LAYER BOTTOM EL. =   19.0000     FOR LAYER   2

   MODEL LAYER BOTTOM EL. =   18.5000     FOR LAYER   3

   MODEL LAYER BOTTOM EL. =   18.0000     FOR LAYER   4

   MODEL LAYER BOTTOM EL. =   17.5000     FOR LAYER   5

   MODEL LAYER BOTTOM EL. =   17.0000     FOR LAYER   6

   MODEL LAYER BOTTOM EL. =   16.5000     FOR LAYER   7

   MODEL LAYER BOTTOM EL. =   16.0000     FOR LAYER   8

   MODEL LAYER BOTTOM EL. =   15.5000     FOR LAYER   9

   MODEL LAYER BOTTOM EL. =   15.0000     FOR LAYER  10

   MODEL LAYER BOTTOM EL. =   14.5000     FOR LAYER  11

   MODEL LAYER BOTTOM EL. =   14.0000     FOR LAYER  12

   MODEL LAYER BOTTOM EL. =   13.5000     FOR LAYER  13

   MODEL LAYER BOTTOM EL. =   13.0000     FOR LAYER  14

   MODEL LAYER BOTTOM EL. =   12.5000     FOR LAYER  15

   MODEL LAYER BOTTOM EL. =   12.0000     FOR LAYER  16

   MODEL LAYER BOTTOM EL. =   11.5000     FOR LAYER  17

   MODEL LAYER BOTTOM EL. =   11.0000     FOR LAYER  18

   MODEL LAYER BOTTOM EL. =   10.5000     FOR LAYER  19

   MODEL LAYER BOTTOM EL. =   10.0000     FOR LAYER  20

   MODEL LAYER BOTTOM EL. =   9.50000     FOR LAYER  21

   MODEL LAYER BOTTOM EL. =   9.00000     FOR LAYER  22

   MODEL LAYER BOTTOM EL. =   8.50000     FOR LAYER  23

   MODEL LAYER BOTTOM EL. =   8.00000     FOR LAYER  24

   MODEL LAYER BOTTOM EL. =   7.50000     FOR LAYER  25

   MODEL LAYER BOTTOM EL. =   7.00000     FOR LAYER  26

   MODEL LAYER BOTTOM EL. =   6.50000     FOR LAYER  27

   MODEL LAYER BOTTOM EL. =   6.00000     FOR LAYER  28

   MODEL LAYER BOTTOM EL. =   5.50000     FOR LAYER  29

   MODEL LAYER BOTTOM EL. =   5.00000     FOR LAYER  30

   MODEL LAYER BOTTOM EL. =   4.50000     FOR LAYER  31

   MODEL LAYER BOTTOM EL. =   4.00000     FOR LAYER  32

   MODEL LAYER BOTTOM EL. =   3.50000     FOR LAYER  33

   MODEL LAYER BOTTOM EL. =   3.00000     FOR LAYER  34

   MODEL LAYER BOTTOM EL. =   2.50000     FOR LAYER  35

   MODEL LAYER BOTTOM EL. =   2.00000     FOR LAYER  36

   MODEL LAYER BOTTOM EL. =   1.50000     FOR LAYER  37

   MODEL LAYER BOTTOM EL. =   1.00000     FOR LAYER  38

   MODEL LAYER BOTTOM EL. =  0.500000     FOR LAYER  39

   MODEL LAYER BOTTOM EL. =   0.00000     FOR LAYER  40


 STRESS PERIOD     LENGTH       TIME STEPS     MULTIPLIER FOR DELT    SS FLAG
 ----------------------------------------------------------------------------
        1         1.000000        100                    1.000         SS
        2         100.0000        100                    1.000         TR

 COMBINED STEADY-STATE AND TRANSIENT SIMULATION




 LPF1 -- LAYER PROPERTY FLOW PACKAGE, VERSION 1, 1/11/2000
         INPUT READ FROM UNIT   15
 # LPF package for  SEAWAT, generated by Flopy.
 CELL-BY-CELL FLOWS WILL BE SAVED ON UNIT   53
 HEAD AT CELLS THAT CONVERT TO DRY= -1.00000E+30
 No named parameters

   LAYER FLAGS:
 LAYER       LAYTYP        LAYAVG         CHANI        LAYVKA        LAYWET
 ---------------------------------------------------------------------------
    1             0             0     1.000E+00             0             0
    2             0             0     1.000E+00             0             0
    3             0             0     1.000E+00             0             0
    4             0             0     1.000E+00             0             0
    5             0             0     1.000E+00             0             0
    6             0             0     1.000E+00             0             0
    7             0             0     1.000E+00             0             0
    8             0             0     1.000E+00             0             0
    9             0             0     1.000E+00             0             0
   10             0             0     1.000E+00             0             0
   11             0             0     1.000E+00             0             0
   12             0             0     1.000E+00             0             0
   13             0             0     1.000E+00             0             0
   14             0             0     1.000E+00             0             0
   15             0             0     1.000E+00             0             0
   16             0             0     1.000E+00             0             0
   17             0             0     1.000E+00             0             0
   18             0             0     1.000E+00             0             0
   19             0             0     1.000E+00             0             0
   20             0             0     1.000E+00             0             0
   21             0             0     1.000E+00             0             0
   22             0             0     1.000E+00             0             0
   23             0             0     1.000E+00             0             0
   24             0             0     1.000E+00             0             0
   25             0             0     1.000E+00             0             0
   26             0             0     1.000E+00             0             0
   27             0             0     1.000E+00             0             0
   28             0             0     1.000E+00             0             0
   29             0             0     1.000E+00             0             0
   30             0             0     1.000E+00             0             0
   31             0             0     1.000E+00             0             0
   32             0             0     1.000E+00             0             0
   33             0             0     1.000E+00             0             0
   34             0             0     1.000E+00             0             0
   35             0             0     1.000E+00             0             0
   36             0             0     1.000E+00             0             0
   37             0             0     1.000E+00             0             0
   38             0             0     1.000E+00             0             0
   39             0             0     1.000E+00             0             0
   40             0             0     1.000E+00             0             0

   INTERPRETATION OF LAYER FLAGS:
                        INTERBLOCK     HORIZONTAL    DATA IN
         LAYER TYPE   TRANSMISSIVITY   ANISOTROPY   ARRAY VKA   WETTABILITY
 LAYER      (LAYTYP)      (LAYAVG)       (CHANI)      (LAYVKA)      (LAYWET)
 ---------------------------------------------------------------------------
    1      CONFINED      HARMONIC     1.000E+00    VERTICAL K  NON-WETTABLE
    2      CONFINED      HARMONIC     1.000E+00    VERTICAL K  NON-WETTABLE
    3      CONFINED      HARMONIC     1.000E+00    VERTICAL K  NON-WETTABLE
    4      CONFINED      HARMONIC     1.000E+00    VERTICAL K  NON-WETTABLE
    5      CONFINED      HARMONIC     1.000E+00    VERTICAL K  NON-WETTABLE
    6      CONFINED      HARMONIC     1.000E+00    VERTICAL K  NON-WETTABLE
    7      CONFINED      HARMONIC     1.000E+00    VERTICAL K  NON-WETTABLE
    8      CONFINED      HARMONIC     1.000E+00    VERTICAL K  NON-WETTABLE
    9      CONFINED      HARMONIC     1.000E+00    VERTICAL K  NON-WETTABLE
   10      CONFINED      HARMONIC     1.000E+00    VERTICAL K  NON-WETTABLE
   11      CONFINED      HARMONIC     1.000E+00    VERTICAL K  NON-WETTABLE
   12      CONFINED      HARMONIC     1.000E+00    VERTICAL K  NON-WETTABLE
   13      CONFINED      HARMONIC     1.000E+00    VERTICAL K  NON-WETTABLE
   14      CONFINED      HARMONIC     1.000E+00    VERTICAL K  NON-WETTABLE
   15      CONFINED      HARMONIC     1.000E+00    VERTICAL K  NON-WETTABLE
   16      CONFINED      HARMONIC     1.000E+00    VERTICAL K  NON-WETTABLE
   17      CONFINED      HARMONIC     1.000E+00    VERTICAL K  NON-WETTABLE
   18      CONFINED      HARMONIC     1.000E+00    VERTICAL K  NON-WETTABLE
   19      CONFINED      HARMONIC     1.000E+00    VERTICAL K  NON-WETTABLE
   20      CONFINED      HARMONIC     1.000E+00    VERTICAL K  NON-WETTABLE
   21      CONFINED      HARMONIC     1.000E+00    VERTICAL K  NON-WETTABLE
   22      CONFINED      HARMONIC     1.000E+00    VERTICAL K  NON-WETTABLE
   23      CONFINED      HARMONIC     1.000E+00    VERTICAL K  NON-WETTABLE
   24      CONFINED      HARMONIC     1.000E+00    VERTICAL K  NON-WETTABLE
   25      CONFINED      HARMONIC     1.000E+00    VERTICAL K  NON-WETTABLE
   26      CONFINED      HARMONIC     1.000E+00    VERTICAL K  NON-WETTABLE
   27      CONFINED      HARMONIC     1.000E+00    VERTICAL K  NON-WETTABLE
   28      CONFINED      HARMONIC     1.000E+00    VERTICAL K  NON-WETTABLE
   29      CONFINED      HARMONIC     1.000E+00    VERTICAL K  NON-WETTABLE
   30      CONFINED      HARMONIC     1.000E+00    VERTICAL K  NON-WETTABLE
   31      CONFINED      HARMONIC     1.000E+00    VERTICAL K  NON-WETTABLE
   32      CONFINED      HARMONIC     1.000E+00    VERTICAL K  NON-WETTABLE
   33      CONFINED      HARMONIC     1.000E+00    VERTICAL K  NON-WETTABLE
   34      CONFINED      HARMONIC     1.000E+00    VERTICAL K  NON-WETTABLE
   35      CONFINED      HARMONIC     1.000E+00    VERTICAL K  NON-WETTABLE
   36      CONFINED      HARMONIC     1.000E+00    VERTICAL K  NON-WETTABLE
   37      CONFINED      HARMONIC     1.000E+00    VERTICAL K  NON-WETTABLE
   38      CONFINED      HARMONIC     1.000E+00    VERTICAL K  NON-WETTABLE
   39      CONFINED      HARMONIC     1.000E+00    VERTICAL K  NON-WETTABLE
   40      CONFINED      HARMONIC     1.000E+00    VERTICAL K  NON-WETTABLE

      25200 ELEMENTS IN X ARRAY ARE USED BY LPF
        240 ELEMENTS IN IX ARRAY ARE USED BY LPF

 PCG2 -- CONJUGATE GRADIENT SOLUTION PACKAGE, VERSION 2.4, 12/29/98
 # PCG package for  SEAWAT, generated by Flopy.
 MAXIMUM OF     50 CALLS OF SOLUTION ROUTINE
 MAXIMUM OF     30 INTERNAL ITERATIONS PER CALL TO SOLUTION ROUTINE
 MATRIX PRECONDITIONING TYPE :    1
      19800 ELEMENTS IN X ARRAY ARE USED BY PCG
      10500 ELEMENTS IN IX ARRAY ARE USED BY PCG
      33600 ELEMENTS IN Z ARRAY ARE USED BY PCG

      45000  ELEMENTS OF X ARRAY USED OUT OF      45000
      33600  ELEMENTS OF Z ARRAY USED OUT OF      33600
      10740  ELEMENTS OF IX ARRAY USED OUT OF      10740
          0  ELEMENTS OF XHS ARRAY USED OUT OF          1



                                    SOLUTION BY THE CONJUGATE-GRADIENT METHOD
                                   -------------------------------------------
                    MAXIMUM NUMBER OF CALLS TO PCG ROUTINE =       50
                        MAXIMUM ITERATIONS PER CALL TO PCG =       30
                               MATRIX PRECONDITIONING TYPE =        1
        RELAXATION FACTOR (ONLY USED WITH PRECOND. TYPE 1) =    0.10000E+01
 PARAMETER OF POLYNOMIAL PRECOND. = 2 (2) OR IS CALCULATED :        0
                         HEAD CHANGE CRITERION FOR CLOSURE =    0.10000E-07
                     RESIDUAL CHANGE CRITERION FOR CLOSURE =    0.10000E-04
            PCG HEAD AND RESIDUAL CHANGE PRINTOUT INTERVAL =      999
     PRINTING FROM SOLVER IS LIMITED(1) OR SUPPRESSED (>1) =        3
                                         DAMPING PARAMETER =    0.10000E+01

 WETTING CAPABILITY IS NOT ACTIVE IN ANY LAYER



              HYD. COND. ALONG ROWS FOR LAYER   1
 READING ON UNIT   15 WITH FORMAT:           (70E15.6) 

      VERTICAL HYD. COND. =  0.100000     FOR LAYER   1

         SPECIFIC STORAGE =  5.000000E-05 FOR LAYER   1



              HYD. COND. ALONG ROWS FOR LAYER   2
 READING ON UNIT   15 WITH FORMAT:           (70E15.6) 

      VERTICAL HYD. COND. =  0.100000     FOR LAYER   2

         SPECIFIC STORAGE =  5.000000E-05 FOR LAYER   2



              HYD. COND. ALONG ROWS FOR LAYER   3
 READING ON UNIT   15 WITH FORMAT:           (70E15.6) 

      VERTICAL HYD. COND. =  0.100000     FOR LAYER   3

         SPECIFIC STORAGE =  5.000000E-05 FOR LAYER   3



              HYD. COND. ALONG ROWS FOR LAYER   4
 READING ON UNIT   15 WITH FORMAT:           (70E15.6) 

      VERTICAL HYD. COND. =  0.100000     FOR LAYER   4

         SPECIFIC STORAGE =  5.000000E-05 FOR LAYER   4



              HYD. COND. ALONG ROWS FOR LAYER   5
 READING ON UNIT   15 WITH FORMAT:           (70E15.6) 

      VERTICAL HYD. COND. =  0.100000     FOR LAYER   5

         SPECIFIC STORAGE =  5.000000E-05 FOR LAYER   5



              HYD. COND. ALONG ROWS FOR LAYER   6
 READING ON UNIT   15 WITH FORMAT:           (70E15.6) 

      VERTICAL HYD. COND. =  0.100000     FOR LAYER   6

         SPECIFIC STORAGE =  5.000000E-05 FOR LAYER   6



              HYD. COND. ALONG ROWS FOR LAYER   7
 READING ON UNIT   15 WITH FORMAT:           (70E15.6) 

      VERTICAL HYD. COND. =  0.100000     FOR LAYER   7

         SPECIFIC STORAGE =  5.000000E-05 FOR LAYER   7



              HYD. COND. ALONG ROWS FOR LAYER   8
 READING ON UNIT   15 WITH FORMAT:           (70E15.6) 

      VERTICAL HYD. COND. =  0.100000     FOR LAYER   8

         SPECIFIC STORAGE =  5.000000E-05 FOR LAYER   8



              HYD. COND. ALONG ROWS FOR LAYER   9
 READING ON UNIT   15 WITH FORMAT:           (70E15.6) 

      VERTICAL HYD. COND. =  0.100000     FOR LAYER   9

         SPECIFIC STORAGE =  5.000000E-05 FOR LAYER   9



              HYD. COND. ALONG ROWS FOR LAYER  10
 READING ON UNIT   15 WITH FORMAT:           (70E15.6) 

      VERTICAL HYD. COND. =  0.100000     FOR LAYER  10

         SPECIFIC STORAGE =  5.000000E-05 FOR LAYER  10



              HYD. COND. ALONG ROWS FOR LAYER  11
 READING ON UNIT   15 WITH FORMAT:           (70E15.6) 

      VERTICAL HYD. COND. =  0.100000     FOR LAYER  11

         SPECIFIC STORAGE =  5.000000E-05 FOR LAYER  11



              HYD. COND. ALONG ROWS FOR LAYER  12
 READING ON UNIT   15 WITH FORMAT:           (70E15.6) 

      VERTICAL HYD. COND. =  0.100000     FOR LAYER  12

         SPECIFIC STORAGE =  5.000000E-05 FOR LAYER  12



              HYD. COND. ALONG ROWS FOR LAYER  13
 READING ON UNIT   15 WITH FORMAT:           (70E15.6) 

      VERTICAL HYD. COND. =  0.100000     FOR LAYER  13

         SPECIFIC STORAGE =  5.000000E-05 FOR LAYER  13



              HYD. COND. ALONG ROWS FOR LAYER  14
 READING ON UNIT   15 WITH FORMAT:           (70E15.6) 

      VERTICAL HYD. COND. =  0.100000     FOR LAYER  14

         SPECIFIC STORAGE =  5.000000E-05 FOR LAYER  14



              HYD. COND. ALONG ROWS FOR LAYER  15
 READING ON UNIT   15 WITH FORMAT:           (70E15.6) 

      VERTICAL HYD. COND. =  0.100000     FOR LAYER  15

         SPECIFIC STORAGE =  5.000000E-05 FOR LAYER  15



              HYD. COND. ALONG ROWS FOR LAYER  16
 READING ON UNIT   15 WITH FORMAT:           (70E15.6) 

      VERTICAL HYD. COND. =  0.100000     FOR LAYER  16

         SPECIFIC STORAGE =  5.000000E-05 FOR LAYER  16



              HYD. COND. ALONG ROWS FOR LAYER  17
 READING ON UNIT   15 WITH FORMAT:           (70E15.6) 

      VERTICAL HYD. COND. =  0.100000     FOR LAYER  17

         SPECIFIC STORAGE =  5.000000E-05 FOR LAYER  17



              HYD. COND. ALONG ROWS FOR LAYER  18
 READING ON UNIT   15 WITH FORMAT:           (70E15.6) 

      VERTICAL HYD. COND. =  0.100000     FOR LAYER  18

         SPECIFIC STORAGE =  5.000000E-05 FOR LAYER  18



              HYD. COND. ALONG ROWS FOR LAYER  19
 READING ON UNIT   15 WITH FORMAT:           (70E15.6) 

      VERTICAL HYD. COND. =  0.100000     FOR LAYER  19

         SPECIFIC STORAGE =  5.000000E-05 FOR LAYER  19



              HYD. COND. ALONG ROWS FOR LAYER  20
 READING ON UNIT   15 WITH FORMAT:           (70E15.6) 

      VERTICAL HYD. COND. =  0.100000     FOR LAYER  20

         SPECIFIC STORAGE =  5.000000E-05 FOR LAYER  20



              HYD. COND. ALONG ROWS FOR LAYER  21
 READING ON UNIT   15 WITH FORMAT:           (70E15.6) 

      VERTICAL HYD. COND. =  0.100000     FOR LAYER  21

         SPECIFIC STORAGE =  5.000000E-05 FOR LAYER  21



              HYD. COND. ALONG ROWS FOR LAYER  22
 READING ON UNIT   15 WITH FORMAT:           (70E15.6) 

      VERTICAL HYD. COND. =  0.100000     FOR LAYER  22

         SPECIFIC STORAGE =  5.000000E-05 FOR LAYER  22



              HYD. COND. ALONG ROWS FOR LAYER  23
 READING ON UNIT   15 WITH FORMAT:           (70E15.6) 

      VERTICAL HYD. COND. =  0.100000     FOR LAYER  23

         SPECIFIC STORAGE =  5.000000E-05 FOR LAYER  23



              HYD. COND. ALONG ROWS FOR LAYER  24
 READING ON UNIT   15 WITH FORMAT:           (70E15.6) 

      VERTICAL HYD. COND. =  0.100000     FOR LAYER  24

         SPECIFIC STORAGE =  5.000000E-05 FOR LAYER  24



              HYD. COND. ALONG ROWS FOR LAYER  25
 READING ON UNIT   15 WITH FORMAT:           (70E15.6) 

      VERTICAL HYD. COND. =  0.100000     FOR LAYER  25

         SPECIFIC STORAGE =  5.000000E-05 FOR LAYER  25



              HYD. COND. ALONG ROWS FOR LAYER  26
 READING ON UNIT   15 WITH FORMAT:           (70E15.6) 

      VERTICAL HYD. COND. =  0.100000     FOR LAYER  26

         SPECIFIC STORAGE =  5.000000E-05 FOR LAYER  26



              HYD. COND. ALONG ROWS FOR LAYER  27
 READING ON UNIT   15 WITH FORMAT:           (70E15.6) 

      VERTICAL HYD. COND. =  0.100000     FOR LAYER  27

         SPECIFIC STORAGE =  5.000000E-05 FOR LAYER  27



              HYD. COND. ALONG ROWS FOR LAYER  28
 READING ON UNIT   15 WITH FORMAT:           (70E15.6) 

      VERTICAL HYD. COND. =  0.100000     FOR LAYER  28

         SPECIFIC STORAGE =  5.000000E-05 FOR LAYER  28



              HYD. COND. ALONG ROWS FOR LAYER  29
 READING ON UNIT   15 WITH FORMAT:           (70E15.6) 

      VERTICAL HYD. COND. =  0.100000     FOR LAYER  29

         SPECIFIC STORAGE =  5.000000E-05 FOR LAYER  29



              HYD. COND. ALONG ROWS FOR LAYER  30
 READING ON UNIT   15 WITH FORMAT:           (70E15.6) 

      VERTICAL HYD. COND. =  0.100000     FOR LAYER  30

         SPECIFIC STORAGE =  5.000000E-05 FOR LAYER  30



              HYD. COND. ALONG ROWS FOR LAYER  31
 READING ON UNIT   15 WITH FORMAT:           (70E15.6) 

      VERTICAL HYD. COND. =  0.100000     FOR LAYER  31

         SPECIFIC STORAGE =  5.000000E-05 FOR LAYER  31



              HYD. COND. ALONG ROWS FOR LAYER  32
 READING ON UNIT   15 WITH FORMAT:           (70E15.6) 

      VERTICAL HYD. COND. =  0.100000     FOR LAYER  32

         SPECIFIC STORAGE =  5.000000E-05 FOR LAYER  32



              HYD. COND. ALONG ROWS FOR LAYER  33
 READING ON UNIT   15 WITH FORMAT:           (70E15.6) 

      VERTICAL HYD. COND. =  0.100000     FOR LAYER  33

         SPECIFIC STORAGE =  5.000000E-05 FOR LAYER  33



              HYD. COND. ALONG ROWS FOR LAYER  34
 READING ON UNIT   15 WITH FORMAT:           (70E15.6) 

      VERTICAL HYD. COND. =  0.100000     FOR LAYER  34

         SPECIFIC STORAGE =  5.000000E-05 FOR LAYER  34



              HYD. COND. ALONG ROWS FOR LAYER  35
 READING ON UNIT   15 WITH FORMAT:           (70E15.6) 

      VERTICAL HYD. COND. =  0.100000     FOR LAYER  35

         SPECIFIC STORAGE =  5.000000E-05 FOR LAYER  35



              HYD. COND. ALONG ROWS FOR LAYER  36
 READING ON UNIT   15 WITH FORMAT:           (70E15.6) 

      VERTICAL HYD. COND. =  0.100000     FOR LAYER  36

         SPECIFIC STORAGE =  5.000000E-05 FOR LAYER  36



              HYD. COND. ALONG ROWS FOR LAYER  37
 READING ON UNIT   15 WITH FORMAT:           (70E15.6) 

      VERTICAL HYD. COND. =  0.100000     FOR LAYER  37

         SPECIFIC STORAGE =  5.000000E-05 FOR LAYER  37



              HYD. COND. ALONG ROWS FOR LAYER  38
 READING ON UNIT   15 WITH FORMAT:           (70E15.6) 

      VERTICAL HYD. COND. =  0.100000     FOR LAYER  38

         SPECIFIC STORAGE =  5.000000E-05 FOR LAYER  38



              HYD. COND. ALONG ROWS FOR LAYER  39
 READING ON UNIT   15 WITH FORMAT:           (70E15.6) 

      VERTICAL HYD. COND. =  0.100000     FOR LAYER  39

         SPECIFIC STORAGE =  5.000000E-05 FOR LAYER  39



              HYD. COND. ALONG ROWS FOR LAYER  40
 READING ON UNIT   15 WITH FORMAT:           (70E15.6) 

      VERTICAL HYD. COND. =  0.100000     FOR LAYER  40

         SPECIFIC STORAGE =  5.000000E-05 FOR LAYER  40
 BTN5 -- BASIC TRANSPORT PACKAGE, VERSION 5, OCTOBER 2006, INPUT READ FROM UNIT 31
     126356 ELEMENTS OF THE  X ARRAY USED BY THE BTN PACKAGE
       8440 ELEMENTS OF THE IX ARRAY USED BY THE BTN PACKAGE

 FLOW MODEL IS TRANSIENT

 ADV5 -- ADVECTION PACKAGE, VERSION 5, FEBRUARY 2005, INPUT READ FROM UNIT 32
 ADVECTION IS SOLVED WITH THE UPSTREAM FINITE DIFFERENCE SCHEME
 COURANT NUMBER ALLOWED IN SOLVING THE ADVECTION TERM = 0.750    
          0 ELEMENTS OF THE  X ARRAY USED BY THE ADV PACKAGE
          0 ELEMENTS OF THE IX ARRAY USED BY THE ADV PACKAGE

 DSP5 -- DISPERSION PACKAGE, VERSION 5, OCTOBER 2006, INPUT READ FROM UNIT 33
      92480 ELEMENTS OF THE  X ARRAY USED BY THE DSP PACKAGE
          0 ELEMENTS OF THE IX ARRAY USED BY THE DSP PACKAGE

 SSM5 -- SINK & SOURCE MIXING PACKAGE, VERSION 5, OCTOBER 2006, INPUT READ FROM UNIT 34
 HEADER LINE OF THE SSM PACKAGE INPUT FILE:
  F F F F F F F F F F F F F F F F                                                                                                                                                                        
 MAJOR STRESS COMPONENTS PRESENT IN THE FLOW MODEL:
 MAXIMUM NUMBER OF POINT SINKS/SOURCES =     240
       3120 ELEMENTS OF THE  X ARRAY USED BY THE SSM PACKAGE
          0 ELEMENTS OF THE IX ARRAY BY THE SSM PACKAGE

 GCG5 -- GENERALIZED CONJUGATE GRADIENT SOLVER PACKAGE, VERSION 5, FEBRUARY 2005 INPUT READ FROM UNIT 35
 MAXIMUM OF    1 OUTER ITERATIONS
        AND  500 INNER ITERATIONS ALLOWED FOR CLOSURE
 THE PRECONDITIONING TYPE SELECTED IS JACOBI.
 DISPERSION CROSS TERMS LUMPED INTO RIGHT-HAND-SIDE
     126500 ELEMENTS OF THE  X ARRAY USED BY THE GCG PACKAGE
       1500 ELEMENTS OF THE IX ARRAY USED BY THE GCG PACKAGE

 
 # BAS6 package for  SEAWAT, generated by Flopy.                                 
 THE FREE FORMAT OPTION HAS BEEN SELECTED
   40 LAYERS         3 ROWS        70 COLUMNS
    2 STRESS PERIOD(S) IN SIMULATION

 BAS6 -- BASIC PACKAGE, VERSION 6, 1/11/2000 INPUT READ FROM UNIT   13
        200 ELEMENTS IN IR ARRAY ARE USED BY BAS

 CHD6 -- TIME-VARIANT SPECIFIED-HEAD PACKAGE, VERSION 6, 1/11/2000
 INPUT READ FROM UNIT   24
 # CHD package for  SEAWAT, generated by Flopy.
 No named parameters
 MAXIMUM OF    120 TIME-VARIANT SPECIFIED-HEAD CELLS AT ONE TIME
        600 ELEMENTS IN RX ARRAY ARE USED BY CHD

        600  ELEMENTS OF RX ARRAY USED OUT OF        600
          0  ELEMENTS OF RZ ARRAY USED OUT OF          1
        200  ELEMENTS OF IR ARRAY USED OUT OF        200
1
 # BAS6 package for  SEAWAT, generated by Flopy.                                 
                                                                                 



                     BOUNDARY ARRAY FOR LAYER   1
 READING ON UNIT   13 WITH FORMAT:             (70I10) 



                     BOUNDARY ARRAY FOR LAYER   2
 READING ON UNIT   13 WITH FORMAT:             (70I10) 



                     BOUNDARY ARRAY FOR LAYER   3
 READING ON UNIT   13 WITH FORMAT:             (70I10) 



                     BOUNDARY ARRAY FOR LAYER   4
 READING ON UNIT   13 WITH FORMAT:             (70I10) 



                     BOUNDARY ARRAY FOR LAYER   5
 READING ON UNIT   13 WITH FORMAT:             (70I10) 



                     BOUNDARY ARRAY FOR LAYER   6
 READING ON UNIT   13 WITH FORMAT:             (70I10) 



                     BOUNDARY ARRAY FOR LAYER   7
 READING ON UNIT   13 WITH FORMAT:             (70I10) 



                     BOUNDARY ARRAY FOR LAYER   8
 READING ON UNIT   13 WITH FORMAT:             (70I10) 



                     BOUNDARY ARRAY FOR LAYER   9
 READING ON UNIT   13 WITH FORMAT:             (70I10) 



                     BOUNDARY ARRAY FOR LAYER  10
 READING ON UNIT   13 WITH FORMAT:             (70I10) 



                     BOUNDARY ARRAY FOR LAYER  11
 READING ON UNIT   13 WITH FORMAT:             (70I10) 



                     BOUNDARY ARRAY FOR LAYER  12
 READING ON UNIT   13 WITH FORMAT:             (70I10) 



                     BOUNDARY ARRAY FOR LAYER  13
 READING ON UNIT   13 WITH FORMAT:             (70I10) 



                     BOUNDARY ARRAY FOR LAYER  14
 READING ON UNIT   13 WITH FORMAT:             (70I10) 



                     BOUNDARY ARRAY FOR LAYER  15
 READING ON UNIT   13 WITH FORMAT:             (70I10) 



                     BOUNDARY ARRAY FOR LAYER  16
 READING ON UNIT   13 WITH FORMAT:             (70I10) 



                     BOUNDARY ARRAY FOR LAYER  17
 READING ON UNIT   13 WITH FORMAT:             (70I10) 



                     BOUNDARY ARRAY FOR LAYER  18
 READING ON UNIT   13 WITH FORMAT:             (70I10) 



                     BOUNDARY ARRAY FOR LAYER  19
 READING ON UNIT   13 WITH FORMAT:             (70I10) 



                     BOUNDARY ARRAY FOR LAYER  20
 READING ON UNIT   13 WITH FORMAT:             (70I10) 



                     BOUNDARY ARRAY FOR LAYER  21
 READING ON UNIT   13 WITH FORMAT:             (70I10) 



                     BOUNDARY ARRAY FOR LAYER  22
 READING ON UNIT   13 WITH FORMAT:             (70I10) 



                     BOUNDARY ARRAY FOR LAYER  23
 READING ON UNIT   13 WITH FORMAT:             (70I10) 



                     BOUNDARY ARRAY FOR LAYER  24
 READING ON UNIT   13 WITH FORMAT:             (70I10) 



                     BOUNDARY ARRAY FOR LAYER  25
 READING ON UNIT   13 WITH FORMAT:             (70I10) 



                     BOUNDARY ARRAY FOR LAYER  26
 READING ON UNIT   13 WITH FORMAT:             (70I10) 



                     BOUNDARY ARRAY FOR LAYER  27
 READING ON UNIT   13 WITH FORMAT:             (70I10) 



                     BOUNDARY ARRAY FOR LAYER  28
 READING ON UNIT   13 WITH FORMAT:             (70I10) 



                     BOUNDARY ARRAY FOR LAYER  29
 READING ON UNIT   13 WITH FORMAT:             (70I10) 



                     BOUNDARY ARRAY FOR LAYER  30
 READING ON UNIT   13 WITH FORMAT:             (70I10) 



                     BOUNDARY ARRAY FOR LAYER  31
 READING ON UNIT   13 WITH FORMAT:             (70I10) 



                     BOUNDARY ARRAY FOR LAYER  32
 READING ON UNIT   13 WITH FORMAT:             (70I10) 



                     BOUNDARY ARRAY FOR LAYER  33
 READING ON UNIT   13 WITH FORMAT:             (70I10) 



                     BOUNDARY ARRAY FOR LAYER  34
 READING ON UNIT   13 WITH FORMAT:             (70I10) 



                     BOUNDARY ARRAY FOR LAYER  35
 READING ON UNIT   13 WITH FORMAT:             (70I10) 



                     BOUNDARY ARRAY FOR LAYER  36
 READING ON UNIT   13 WITH FORMAT:             (70I10) 



                     BOUNDARY ARRAY FOR LAYER  37
 READING ON UNIT   13 WITH FORMAT:             (70I10) 



                     BOUNDARY ARRAY FOR LAYER  38
 READING ON UNIT   13 WITH FORMAT:             (70I10) 



                     BOUNDARY ARRAY FOR LAYER  39
 READING ON UNIT   13 WITH FORMAT:             (70I10) 



                     BOUNDARY ARRAY FOR LAYER  40
 READING ON UNIT   13 WITH FORMAT:             (70I10) 

 AQUIFER HEAD WILL BE SET TO -999.99     AT ALL NO-FLOW NODES (IBOUND=0).



                       INITIAL HEAD FOR LAYER   1
 READING ON UNIT   13 WITH FORMAT:           (70E15.6) 



                       INITIAL HEAD FOR LAYER   2
 READING ON UNIT   13 WITH FORMAT:           (70E15.6) 



                       INITIAL HEAD FOR LAYER   3
 READING ON UNIT   13 WITH FORMAT:           (70E15.6) 



                       INITIAL HEAD FOR LAYER   4
 READING ON UNIT   13 WITH FORMAT:           (70E15.6) 



                       INITIAL HEAD FOR LAYER   5
 READING ON UNIT   13 WITH FORMAT:           (70E15.6) 



                       INITIAL HEAD FOR LAYER   6
 READING ON UNIT   13 WITH FORMAT:           (70E15.6) 



                       INITIAL HEAD FOR LAYER   7
 READING ON UNIT   13 WITH FORMAT:           (70E15.6) 



                       INITIAL HEAD FOR LAYER   8
 READING ON UNIT   13 WITH FORMAT:           (70E15.6) 



                       INITIAL HEAD FOR LAYER   9
 READING ON UNIT   13 WITH FORMAT:           (70E15.6) 



                       INITIAL HEAD FOR LAYER  10
 READING ON UNIT   13 WITH FORMAT:           (70E15.6) 



                       INITIAL HEAD FOR LAYER  11
 READING ON UNIT   13 WITH FORMAT:           (70E15.6) 



                       INITIAL HEAD FOR LAYER  12
 READING ON UNIT   13 WITH FORMAT:           (70E15.6) 



                       INITIAL HEAD FOR LAYER  13
 READING ON UNIT   13 WITH FORMAT:           (70E15.6) 



                       INITIAL HEAD FOR LAYER  14
 READING ON UNIT   13 WITH FORMAT:           (70E15.6) 



                       INITIAL HEAD FOR LAYER  15
 READING ON UNIT   13 WITH FORMAT:           (70E15.6) 



                       INITIAL HEAD FOR LAYER  16
 READING ON UNIT   13 WITH FORMAT:           (70E15.6) 



                       INITIAL HEAD FOR LAYER  17
 READING ON UNIT   13 WITH FORMAT:           (70E15.6) 



                       INITIAL HEAD FOR LAYER  18
 READING ON UNIT   13 WITH FORMAT:           (70E15.6) 



                       INITIAL HEAD FOR LAYER  19
 READING ON UNIT   13 WITH FORMAT:           (70E15.6) 



                       INITIAL HEAD FOR LAYER  20
 READING ON UNIT   13 WITH FORMAT:           (70E15.6) 



                       INITIAL HEAD FOR LAYER  21
 READING ON UNIT   13 WITH FORMAT:           (70E15.6) 



                       INITIAL HEAD FOR LAYER  22
 READING ON UNIT   13 WITH FORMAT:           (70E15.6) 



                       INITIAL HEAD FOR LAYER  23
 READING ON UNIT   13 WITH FORMAT:           (70E15.6) 



                       INITIAL HEAD FOR LAYER  24
 READING ON UNIT   13 WITH FORMAT:           (70E15.6) 



                       INITIAL HEAD FOR LAYER  25
 READING ON UNIT   13 WITH FORMAT:           (70E15.6) 



                       INITIAL HEAD FOR LAYER  26
 READING ON UNIT   13 WITH FORMAT:           (70E15.6) 



                       INITIAL HEAD FOR LAYER  27
 READING ON UNIT   13 WITH FORMAT:           (70E15.6) 



                       INITIAL HEAD FOR LAYER  28
 READING ON UNIT   13 WITH FORMAT:           (70E15.6) 



                       INITIAL HEAD FOR LAYER  29
 READING ON UNIT   13 WITH FORMAT:           (70E15.6) 



                       INITIAL HEAD FOR LAYER  30
 READING ON UNIT   13 WITH FORMAT:           (70E15.6) 



                       INITIAL HEAD FOR LAYER  31
 READING ON UNIT   13 WITH FORMAT:           (70E15.6) 



                       INITIAL HEAD FOR LAYER  32
 READING ON UNIT   13 WITH FORMAT:           (70E15.6) 



                       INITIAL HEAD FOR LAYER  33
 READING ON UNIT   13 WITH FORMAT:           (70E15.6) 



                       INITIAL HEAD FOR LAYER  34
 READING ON UNIT   13 WITH FORMAT:           (70E15.6) 



                       INITIAL HEAD FOR LAYER  35
 READING ON UNIT   13 WITH FORMAT:           (70E15.6) 



                       INITIAL HEAD FOR LAYER  36
 READING ON UNIT   13 WITH FORMAT:           (70E15.6) 



                       INITIAL HEAD FOR LAYER  37
 READING ON UNIT   13 WITH FORMAT:           (70E15.6) 



                       INITIAL HEAD FOR LAYER  38
 READING ON UNIT   13 WITH FORMAT:           (70E15.6) 



                       INITIAL HEAD FOR LAYER  39
 READING ON UNIT   13 WITH FORMAT:           (70E15.6) 



                       INITIAL HEAD FOR LAYER  40
 READING ON UNIT   13 WITH FORMAT:           (70E15.6) 
 # OC package for  SEAWAT, generated by Flopy.

 OUTPUT CONTROL IS SPECIFIED ONLY AT TIME STEPS FOR WHICH OUTPUT IS DESIRED
 COMPACT CELL-BY-CELL BUDGET FILES WILL BE WRITTEN
 AUXILIARY DATA WILL BE SAVED IN CELL-BY-CELL BUDGET FILES
 HEAD PRINT FORMAT CODE IS   0    DRAWDOWN PRINT FORMAT CODE IS   0
 HEADS WILL BE SAVED ON UNIT   51    DRAWDOWNS WILL BE SAVED ON UNIT    0


     0 TIME-VARIANT SPECIFIED-HEAD PARAMETERS
 LAYER NUMBER  AQUIFER TYPE
 ------------  ------------
       1            0
       2            0
       3            0
       4            0
       5            0
       6            0
       7            0
       8            0
       9            0
      10            0
      11            0
      12            0
      13            0
      14            0
      15            0
      16            0
      17            0
      18            0
      19            0
      20            0
      21            0
      22            0
      23            0
      24            0
      25            0
      26            0
      27            0
      28            0
      29            0
      30            0
      31            0
      32            0
      33            0
      34            0
      35            0
      36            0
      37            0
      38            0
      39            0
      40            0
                                       WIDTH ALONG ROWS (DELR)  =   1.000000    
                                       WIDTH ALONG COLS (DELC)  =   1.000000    
                                       TOP ELEV. OF 1ST LAYER   =   20.00000    
                                       CELL THICKNESS (DZ)      =  0.5000000     FOR LAYER  1
                                       CELL THICKNESS (DZ)      =  0.5000000     FOR LAYER  2
                                       CELL THICKNESS (DZ)      =  0.5000000     FOR LAYER  3
                                       CELL THICKNESS (DZ)      =  0.5000000     FOR LAYER  4
                                       CELL THICKNESS (DZ)      =  0.5000000     FOR LAYER  5
                                       CELL THICKNESS (DZ)      =  0.5000000     FOR LAYER  6
                                       CELL THICKNESS (DZ)      =  0.5000000     FOR LAYER  7
                                       CELL THICKNESS (DZ)      =  0.5000000     FOR LAYER  8
                                       CELL THICKNESS (DZ)      =  0.5000000     FOR LAYER  9
                                       CELL THICKNESS (DZ)      =  0.5000000     FOR LAYER 10
                                       CELL THICKNESS (DZ)      =  0.5000000     FOR LAYER 11
                                       CELL THICKNESS (DZ)      =  0.5000000     FOR LAYER 12
                                       CELL THICKNESS (DZ)      =  0.5000000     FOR LAYER 13
                                       CELL THICKNESS (DZ)      =  0.5000000     FOR LAYER 14
                                       CELL THICKNESS (DZ)      =  0.5000000     FOR LAYER 15
                                       CELL THICKNESS (DZ)      =  0.5000000     FOR LAYER 16
                                       CELL THICKNESS (DZ)      =  0.5000000     FOR LAYER 17
                                       CELL THICKNESS (DZ)      =  0.5000000     FOR LAYER 18
                                       CELL THICKNESS (DZ)      =  0.5000000     FOR LAYER 19
                                       CELL THICKNESS (DZ)      =  0.5000000     FOR LAYER 20
                                       CELL THICKNESS (DZ)      =  0.5000000     FOR LAYER 21
                                       CELL THICKNESS (DZ)      =  0.5000000     FOR LAYER 22
                                       CELL THICKNESS (DZ)      =  0.5000000     FOR LAYER 23
                                       CELL THICKNESS (DZ)      =  0.5000000     FOR LAYER 24
                                       CELL THICKNESS (DZ)      =  0.5000000     FOR LAYER 25
                                       CELL THICKNESS (DZ)      =  0.5000000     FOR LAYER 26
                                       CELL THICKNESS (DZ)      =  0.5000000     FOR LAYER 27
                                       CELL THICKNESS (DZ)      =  0.5000000     FOR LAYER 28
                                       CELL THICKNESS (DZ)      =  0.5000000     FOR LAYER 29
                                       CELL THICKNESS (DZ)      =  0.5000000     FOR LAYER 30
                                       CELL THICKNESS (DZ)      =  0.5000000     FOR LAYER 31
                                       CELL THICKNESS (DZ)      =  0.5000000     FOR LAYER 32
                                       CELL THICKNESS (DZ)      =  0.5000000     FOR LAYER 33
                                       CELL THICKNESS (DZ)      =  0.5000000     FOR LAYER 34
                                       CELL THICKNESS (DZ)      =  0.5000000     FOR LAYER 35
                                       CELL THICKNESS (DZ)      =  0.5000000     FOR LAYER 36
                                       CELL THICKNESS (DZ)      =  0.5000000     FOR LAYER 37
                                       CELL THICKNESS (DZ)      =  0.5000000     FOR LAYER 38
                                       CELL THICKNESS (DZ)      =  0.5000000     FOR LAYER 39
                                       CELL THICKNESS (DZ)      =  0.5000000     FOR LAYER 40
                                       POROSITY                 =  0.2000000     FOR LAYER  1
                                       POROSITY                 =  0.2000000     FOR LAYER  2
                                       POROSITY                 =  0.2000000     FOR LAYER  3
                                       POROSITY                 =  0.2000000     FOR LAYER  4
                                       POROSITY                 =  0.2000000     FOR LAYER  5
                                       POROSITY                 =  0.2000000     FOR LAYER  6
                                       POROSITY                 =  0.2000000     FOR LAYER  7
                                       POROSITY                 =  0.2000000     FOR LAYER  8
                                       POROSITY                 =  0.2000000     FOR LAYER  9
                                       POROSITY                 =  0.2000000     FOR LAYER 10
                                       POROSITY                 =  0.2000000     FOR LAYER 11
                                       POROSITY                 =  0.2000000     FOR LAYER 12
                                       POROSITY                 =  0.2000000     FOR LAYER 13
                                       POROSITY                 =  0.2000000     FOR LAYER 14
                                       POROSITY                 =  0.2000000     FOR LAYER 15
                                       POROSITY                 =  0.2000000     FOR LAYER 16
                                       POROSITY                 =  0.2000000     FOR LAYER 17
                                       POROSITY                 =  0.2000000     FOR LAYER 18
                                       POROSITY                 =  0.2000000     FOR LAYER 19
                                       POROSITY                 =  0.2000000     FOR LAYER 20
                                       POROSITY                 =  0.2000000     FOR LAYER 21
                                       POROSITY                 =  0.2000000     FOR LAYER 22
                                       POROSITY                 =  0.2000000     FOR LAYER 23
                                       POROSITY                 =  0.2000000     FOR LAYER 24
                                       POROSITY                 =  0.2000000     FOR LAYER 25
                                       POROSITY                 =  0.2000000     FOR LAYER 26
                                       POROSITY                 =  0.2000000     FOR LAYER 27
                                       POROSITY                 =  0.2000000     FOR LAYER 28
                                       POROSITY                 =  0.2000000     FOR LAYER 29
                                       POROSITY                 =  0.2000000     FOR LAYER 30
                                       POROSITY                 =  0.2000000     FOR LAYER 31
                                       POROSITY                 =  0.2000000     FOR LAYER 32
                                       POROSITY                 =  0.2000000     FOR LAYER 33
                                       POROSITY                 =  0.2000000     FOR LAYER 34
                                       POROSITY                 =  0.2000000     FOR LAYER 35
                                       POROSITY                 =  0.2000000     FOR LAYER 36
                                       POROSITY                 =  0.2000000     FOR LAYER 37
                                       POROSITY                 =  0.2000000     FOR LAYER 38
                                       POROSITY                 =  0.2000000     FOR LAYER 39
                                       POROSITY                 =  0.2000000     FOR LAYER 40

                     CONCN. BOUNDARY ARRAY    FOR LAYER  1 READ ON UNIT 31 USING FORMAT: "            (70I10) "
                     ------------------------------------------------------------------------------------------

                     CONCN. BOUNDARY ARRAY    FOR LAYER  2 READ ON UNIT 31 USING FORMAT: "            (70I10) "
                     ------------------------------------------------------------------------------------------

                     CONCN. BOUNDARY ARRAY    FOR LAYER  3 READ ON UNIT 31 USING FORMAT: "            (70I10) "
                     ------------------------------------------------------------------------------------------

                     CONCN. BOUNDARY ARRAY    FOR LAYER  4 READ ON UNIT 31 USING FORMAT: "            (70I10) "
                     ------------------------------------------------------------------------------------------

                     CONCN. BOUNDARY ARRAY    FOR LAYER  5 READ ON UNIT 31 USING FORMAT: "            (70I10) "
                     ------------------------------------------------------------------------------------------

                     CONCN. BOUNDARY ARRAY    FOR LAYER  6 READ ON UNIT 31 USING FORMAT: "            (70I10) "
                     ------------------------------------------------------------------------------------------

                     CONCN. BOUNDARY ARRAY    FOR LAYER  7 READ ON UNIT 31 USING FORMAT: "            (70I10) "
                     ------------------------------------------------------------------------------------------

                     CONCN. BOUNDARY ARRAY    FOR LAYER  8 READ ON UNIT 31 USING FORMAT: "            (70I10) "
                     ------------------------------------------------------------------------------------------

                     CONCN. BOUNDARY ARRAY    FOR LAYER  9 READ ON UNIT 31 USING FORMAT: "            (70I10) "
                     ------------------------------------------------------------------------------------------

                     CONCN. BOUNDARY ARRAY    FOR LAYER 10 READ ON UNIT 31 USING FORMAT: "            (70I10) "
                     ------------------------------------------------------------------------------------------

                     CONCN. BOUNDARY ARRAY    FOR LAYER 11 READ ON UNIT 31 USING FORMAT: "            (70I10) "
                     ------------------------------------------------------------------------------------------

                     CONCN. BOUNDARY ARRAY    FOR LAYER 12 READ ON UNIT 31 USING FORMAT: "            (70I10) "
                     ------------------------------------------------------------------------------------------

                     CONCN. BOUNDARY ARRAY    FOR LAYER 13 READ ON UNIT 31 USING FORMAT: "            (70I10) "
                     ------------------------------------------------------------------------------------------

                     CONCN. BOUNDARY ARRAY    FOR LAYER 14 READ ON UNIT 31 USING FORMAT: "            (70I10) "
                     ------------------------------------------------------------------------------------------

                     CONCN. BOUNDARY ARRAY    FOR LAYER 15 READ ON UNIT 31 USING FORMAT: "            (70I10) "
                     ------------------------------------------------------------------------------------------

                     CONCN. BOUNDARY ARRAY    FOR LAYER 16 READ ON UNIT 31 USING FORMAT: "            (70I10) "
                     ------------------------------------------------------------------------------------------

                     CONCN. BOUNDARY ARRAY    FOR LAYER 17 READ ON UNIT 31 USING FORMAT: "            (70I10) "
                     ------------------------------------------------------------------------------------------

                     CONCN. BOUNDARY ARRAY    FOR LAYER 18 READ ON UNIT 31 USING FORMAT: "            (70I10) "
                     ------------------------------------------------------------------------------------------

                     CONCN. BOUNDARY ARRAY    FOR LAYER 19 READ ON UNIT 31 USING FORMAT: "            (70I10) "
                     ------------------------------------------------------------------------------------------

                     CONCN. BOUNDARY ARRAY    FOR LAYER 20 READ ON UNIT 31 USING FORMAT: "            (70I10) "
                     ------------------------------------------------------------------------------------------

                     CONCN. BOUNDARY ARRAY    FOR LAYER 21 READ ON UNIT 31 USING FORMAT: "            (70I10) "
                     ------------------------------------------------------------------------------------------

                     CONCN. BOUNDARY ARRAY    FOR LAYER 22 READ ON UNIT 31 USING FORMAT: "            (70I10) "
                     ------------------------------------------------------------------------------------------

                     CONCN. BOUNDARY ARRAY    FOR LAYER 23 READ ON UNIT 31 USING FORMAT: "            (70I10) "
                     ------------------------------------------------------------------------------------------

                     CONCN. BOUNDARY ARRAY    FOR LAYER 24 READ ON UNIT 31 USING FORMAT: "            (70I10) "
                     ------------------------------------------------------------------------------------------

                     CONCN. BOUNDARY ARRAY    FOR LAYER 25 READ ON UNIT 31 USING FORMAT: "            (70I10) "
                     ------------------------------------------------------------------------------------------

                     CONCN. BOUNDARY ARRAY    FOR LAYER 26 READ ON UNIT 31 USING FORMAT: "            (70I10) "
                     ------------------------------------------------------------------------------------------

                     CONCN. BOUNDARY ARRAY    FOR LAYER 27 READ ON UNIT 31 USING FORMAT: "            (70I10) "
                     ------------------------------------------------------------------------------------------

                     CONCN. BOUNDARY ARRAY    FOR LAYER 28 READ ON UNIT 31 USING FORMAT: "            (70I10) "
                     ------------------------------------------------------------------------------------------

                     CONCN. BOUNDARY ARRAY    FOR LAYER 29 READ ON UNIT 31 USING FORMAT: "            (70I10) "
                     ------------------------------------------------------------------------------------------

                     CONCN. BOUNDARY ARRAY    FOR LAYER 30 READ ON UNIT 31 USING FORMAT: "            (70I10) "
                     ------------------------------------------------------------------------------------------

                     CONCN. BOUNDARY ARRAY    FOR LAYER 31 READ ON UNIT 31 USING FORMAT: "            (70I10) "
                     ------------------------------------------------------------------------------------------

                     CONCN. BOUNDARY ARRAY    FOR LAYER 32 READ ON UNIT 31 USING FORMAT: "            (70I10) "
                     ------------------------------------------------------------------------------------------

                     CONCN. BOUNDARY ARRAY    FOR LAYER 33 READ ON UNIT 31 USING FORMAT: "            (70I10) "
                     ------------------------------------------------------------------------------------------

                     CONCN. BOUNDARY ARRAY    FOR LAYER 34 READ ON UNIT 31 USING FORMAT: "            (70I10) "
                     ------------------------------------------------------------------------------------------

                     CONCN. BOUNDARY ARRAY    FOR LAYER 35 READ ON UNIT 31 USING FORMAT: "            (70I10) "
                     ------------------------------------------------------------------------------------------

                     CONCN. BOUNDARY ARRAY    FOR LAYER 36 READ ON UNIT 31 USING FORMAT: "            (70I10) "
                     ------------------------------------------------------------------------------------------

                     CONCN. BOUNDARY ARRAY    FOR LAYER 37 READ ON UNIT 31 USING FORMAT: "            (70I10) "
                     ------------------------------------------------------------------------------------------

                     CONCN. BOUNDARY ARRAY    FOR LAYER 38 READ ON UNIT 31 USING FORMAT: "            (70I10) "
                     ------------------------------------------------------------------------------------------

                     CONCN. BOUNDARY ARRAY    FOR LAYER 39 READ ON UNIT 31 USING FORMAT: "            (70I10) "
                     ------------------------------------------------------------------------------------------

                     CONCN. BOUNDARY ARRAY    FOR LAYER 40 READ ON UNIT 31 USING FORMAT: "            (70I10) "
                     ------------------------------------------------------------------------------------------

                     INITIAL CONC.: COMP.  01 FOR LAYER  1 READ ON UNIT 31 USING FORMAT: "          (70E15.6) "
                     ------------------------------------------------------------------------------------------

                     INITIAL CONC.: COMP.  01 FOR LAYER  2 READ ON UNIT 31 USING FORMAT: "          (70E15.6) "
                     ------------------------------------------------------------------------------------------

                     INITIAL CONC.: COMP.  01 FOR LAYER  3 READ ON UNIT 31 USING FORMAT: "          (70E15.6) "
                     ------------------------------------------------------------------------------------------

                     INITIAL CONC.: COMP.  01 FOR LAYER  4 READ ON UNIT 31 USING FORMAT: "          (70E15.6) "
                     ------------------------------------------------------------------------------------------

                     INITIAL CONC.: COMP.  01 FOR LAYER  5 READ ON UNIT 31 USING FORMAT: "          (70E15.6) "
                     ------------------------------------------------------------------------------------------

                     INITIAL CONC.: COMP.  01 FOR LAYER  6 READ ON UNIT 31 USING FORMAT: "          (70E15.6) "
                     ------------------------------------------------------------------------------------------

                     INITIAL CONC.: COMP.  01 FOR LAYER  7 READ ON UNIT 31 USING FORMAT: "          (70E15.6) "
                     ------------------------------------------------------------------------------------------

                     INITIAL CONC.: COMP.  01 FOR LAYER  8 READ ON UNIT 31 USING FORMAT: "          (70E15.6) "
                     ------------------------------------------------------------------------------------------

                     INITIAL CONC.: COMP.  01 FOR LAYER  9 READ ON UNIT 31 USING FORMAT: "          (70E15.6) "
                     ------------------------------------------------------------------------------------------

                     INITIAL CONC.: COMP.  01 FOR LAYER 10 READ ON UNIT 31 USING FORMAT: "          (70E15.6) "
                     ------------------------------------------------------------------------------------------

                     INITIAL CONC.: COMP.  01 FOR LAYER 11 READ ON UNIT 31 USING FORMAT: "          (70E15.6) "
                     ------------------------------------------------------------------------------------------

                     INITIAL CONC.: COMP.  01 FOR LAYER 12 READ ON UNIT 31 USING FORMAT: "          (70E15.6) "
                     ------------------------------------------------------------------------------------------

                     INITIAL CONC.: COMP.  01 FOR LAYER 13 READ ON UNIT 31 USING FORMAT: "          (70E15.6) "
                     ------------------------------------------------------------------------------------------

                     INITIAL CONC.: COMP.  01 FOR LAYER 14 READ ON UNIT 31 USING FORMAT: "          (70E15.6) "
                     ------------------------------------------------------------------------------------------

                     INITIAL CONC.: COMP.  01 FOR LAYER 15 READ ON UNIT 31 USING FORMAT: "          (70E15.6) "
                     ------------------------------------------------------------------------------------------

                     INITIAL CONC.: COMP.  01 FOR LAYER 16 READ ON UNIT 31 USING FORMAT: "          (70E15.6) "
                     ------------------------------------------------------------------------------------------

                     INITIAL CONC.: COMP.  01 FOR LAYER 17 READ ON UNIT 31 USING FORMAT: "          (70E15.6) "
                     ------------------------------------------------------------------------------------------

                     INITIAL CONC.: COMP.  01 FOR LAYER 18 READ ON UNIT 31 USING FORMAT: "          (70E15.6) "
                     ------------------------------------------------------------------------------------------

                     INITIAL CONC.: COMP.  01 FOR LAYER 19 READ ON UNIT 31 USING FORMAT: "          (70E15.6) "
                     ------------------------------------------------------------------------------------------

                     INITIAL CONC.: COMP.  01 FOR LAYER 20 READ ON UNIT 31 USING FORMAT: "          (70E15.6) "
                     ------------------------------------------------------------------------------------------

                     INITIAL CONC.: COMP.  01 FOR LAYER 21 READ ON UNIT 31 USING FORMAT: "          (70E15.6) "
                     ------------------------------------------------------------------------------------------

                     INITIAL CONC.: COMP.  01 FOR LAYER 22 READ ON UNIT 31 USING FORMAT: "          (70E15.6) "
                     ------------------------------------------------------------------------------------------

                     INITIAL CONC.: COMP.  01 FOR LAYER 23 READ ON UNIT 31 USING FORMAT: "          (70E15.6) "
                     ------------------------------------------------------------------------------------------

                     INITIAL CONC.: COMP.  01 FOR LAYER 24 READ ON UNIT 31 USING FORMAT: "          (70E15.6) "
                     ------------------------------------------------------------------------------------------

                     INITIAL CONC.: COMP.  01 FOR LAYER 25 READ ON UNIT 31 USING FORMAT: "          (70E15.6) "
                     ------------------------------------------------------------------------------------------

                     INITIAL CONC.: COMP.  01 FOR LAYER 26 READ ON UNIT 31 USING FORMAT: "          (70E15.6) "
                     ------------------------------------------------------------------------------------------

                     INITIAL CONC.: COMP.  01 FOR LAYER 27 READ ON UNIT 31 USING FORMAT: "          (70E15.6) "
                     ------------------------------------------------------------------------------------------

                     INITIAL CONC.: COMP.  01 FOR LAYER 28 READ ON UNIT 31 USING FORMAT: "          (70E15.6) "
                     ------------------------------------------------------------------------------------------

                     INITIAL CONC.: COMP.  01 FOR LAYER 29 READ ON UNIT 31 USING FORMAT: "          (70E15.6) "
                     ------------------------------------------------------------------------------------------

                     INITIAL CONC.: COMP.  01 FOR LAYER 30 READ ON UNIT 31 USING FORMAT: "          (70E15.6) "
                     ------------------------------------------------------------------------------------------

                     INITIAL CONC.: COMP.  01 FOR LAYER 31 READ ON UNIT 31 USING FORMAT: "          (70E15.6) "
                     ------------------------------------------------------------------------------------------

                     INITIAL CONC.: COMP.  01 FOR LAYER 32 READ ON UNIT 31 USING FORMAT: "          (70E15.6) "
                     ------------------------------------------------------------------------------------------

                     INITIAL CONC.: COMP.  01 FOR LAYER 33 READ ON UNIT 31 USING FORMAT: "          (70E15.6) "
                     ------------------------------------------------------------------------------------------

                     INITIAL CONC.: COMP.  01 FOR LAYER 34 READ ON UNIT 31 USING FORMAT: "          (70E15.6) "
                     ------------------------------------------------------------------------------------------

                     INITIAL CONC.: COMP.  01 FOR LAYER 35 READ ON UNIT 31 USING FORMAT: "          (70E15.6) "
                     ------------------------------------------------------------------------------------------

                     INITIAL CONC.: COMP.  01 FOR LAYER 36 READ ON UNIT 31 USING FORMAT: "          (70E15.6) "
                     ------------------------------------------------------------------------------------------

                     INITIAL CONC.: COMP.  01 FOR LAYER 37 READ ON UNIT 31 USING FORMAT: "          (70E15.6) "
                     ------------------------------------------------------------------------------------------

                     INITIAL CONC.: COMP.  01 FOR LAYER 38 READ ON UNIT 31 USING FORMAT: "          (70E15.6) "
                     ------------------------------------------------------------------------------------------

                     INITIAL CONC.: COMP.  01 FOR LAYER 39 READ ON UNIT 31 USING FORMAT: "          (70E15.6) "
                     ------------------------------------------------------------------------------------------

                     INITIAL CONC.: COMP.  01 FOR LAYER 40 READ ON UNIT 31 USING FORMAT: "          (70E15.6) "
                     ------------------------------------------------------------------------------------------

 VALUE INDICATING INACTIVE CONCENTRATION CELLS =   0.1000000E+31
 MINIMUM SATURATED THICKNESS [THKMIN] ALLOWED =  0.0100 OF TOTAL CELL THICKNESS


 OUTPUT CONTROL OPTIONS
 ----------------------

 DO NOT PRINT CELL CONCENTRATION
 DO NOT PRINT PARTICLE NUMBER IN EACH CELL
 DO NOT PRINT RETARDATION FACTOR
 DO NOT PRINT DISPERSION COEFFICIENT
 SAVE DISSOLVED PHASE CONCENTRATIONS IN UNFORMATTED FILES [MT3Dnnn.UCN]
  FOR EACH SPECIES ON UNITS 201 AND ABOVE

 SIMULATION RESULTS ARE SAVED EVERY  10 TRANSPORT STEP(S)

 NUMBER OF OBSERVATION POINTS =    0

 SAVE ONE-LINE SUMMARY OF MASS BUDGETS IN FILES [MT3Dnnn.MAS]
  FOR EACH SPECIES ON UNITS 601 AND ABOVE, EVERY  1 TRANSPORT STEPS

 MAXIMUM LENGTH ALONG THE X (J) AXIS =   70.00000    
 MAXIMUM LENGTH ALONG THE Y (I) AXIS =   3.000000    
 MAXIMUM LENGTH ALONG THE Z (K) AXIS =   20.00000    


 ADVECTION SOLUTION OPTIONS
 --------------------------

 ADVECTION IS SOLVED WITH THE UPSTREAM FINITE DIFFERENCE SCHEME
 COURANT NUMBER ALLOWED IN SOLVING THE ADVECTION TERM = 0.750    


 DISPERSION INPUT PARAMETERS
 ---------------------------

                                       LONG. DISPERSIVITY (AL)  =   3.000000     FOR LAYER  1
                                       LONG. DISPERSIVITY (AL)  =   3.000000     FOR LAYER  2
                                       LONG. DISPERSIVITY (AL)  =   3.000000     FOR LAYER  3
                                       LONG. DISPERSIVITY (AL)  =   3.000000     FOR LAYER  4
                                       LONG. DISPERSIVITY (AL)  =   3.000000     FOR LAYER  5
                                       LONG. DISPERSIVITY (AL)  =   3.000000     FOR LAYER  6
                                       LONG. DISPERSIVITY (AL)  =   3.000000     FOR LAYER  7
                                       LONG. DISPERSIVITY (AL)  =   3.000000     FOR LAYER  8
                                       LONG. DISPERSIVITY (AL)  =   3.000000     FOR LAYER  9
                                       LONG. DISPERSIVITY (AL)  =   3.000000     FOR LAYER 10
                                       LONG. DISPERSIVITY (AL)  =   3.000000     FOR LAYER 11
                                       LONG. DISPERSIVITY (AL)  =   3.000000     FOR LAYER 12
                                       LONG. DISPERSIVITY (AL)  =   3.000000     FOR LAYER 13
                                       LONG. DISPERSIVITY (AL)  =   3.000000     FOR LAYER 14
                                       LONG. DISPERSIVITY (AL)  =   3.000000     FOR LAYER 15
                                       LONG. DISPERSIVITY (AL)  =   3.000000     FOR LAYER 16
                                       LONG. DISPERSIVITY (AL)  =   3.000000     FOR LAYER 17
                                       LONG. DISPERSIVITY (AL)  =   3.000000     FOR LAYER 18
                                       LONG. DISPERSIVITY (AL)  =   3.000000     FOR LAYER 19
                                       LONG. DISPERSIVITY (AL)  =   3.000000     FOR LAYER 20
                                       LONG. DISPERSIVITY (AL)  =   3.000000     FOR LAYER 21
                                       LONG. DISPERSIVITY (AL)  =   3.000000     FOR LAYER 22
                                       LONG. DISPERSIVITY (AL)  =   3.000000     FOR LAYER 23
                                       LONG. DISPERSIVITY (AL)  =   3.000000     FOR LAYER 24
                                       LONG. DISPERSIVITY (AL)  =   3.000000     FOR LAYER 25
                                       LONG. DISPERSIVITY (AL)  =   3.000000     FOR LAYER 26
                                       LONG. DISPERSIVITY (AL)  =   3.000000     FOR LAYER 27
                                       LONG. DISPERSIVITY (AL)  =   3.000000     FOR LAYER 28
                                       LONG. DISPERSIVITY (AL)  =   3.000000     FOR LAYER 29
                                       LONG. DISPERSIVITY (AL)  =   3.000000     FOR LAYER 30
                                       LONG. DISPERSIVITY (AL)  =   3.000000     FOR LAYER 31
                                       LONG. DISPERSIVITY (AL)  =   3.000000     FOR LAYER 32
                                       LONG. DISPERSIVITY (AL)  =   3.000000     FOR LAYER 33
                                       LONG. DISPERSIVITY (AL)  =   3.000000     FOR LAYER 34
                                       LONG. DISPERSIVITY (AL)  =   3.000000     FOR LAYER 35
                                       LONG. DISPERSIVITY (AL)  =   3.000000     FOR LAYER 36
                                       LONG. DISPERSIVITY (AL)  =   3.000000     FOR LAYER 37
                                       LONG. DISPERSIVITY (AL)  =   3.000000     FOR LAYER 38
                                       LONG. DISPERSIVITY (AL)  =   3.000000     FOR LAYER 39
                                       LONG. DISPERSIVITY (AL)  =   3.000000     FOR LAYER 40
                                       H. TRANS./LONG. DISP.    =   1.000000    
                                       V. TRANS./LONG. DISP.    =   1.000000    
                                       DIFFUSION COEFFICIENT    =   0.000000    



                                               SOLUTION BY THE GENERALIZED CONJUGATE GRADIENT METHOD
                                               -----------------------------------------------------
                                     MAXIMUM OUTER ITERATIONS ALLOWED FOR CLOSURE =        1
                                     MAXIMUM INNER ITERATIONS ALLOWED FOR CLOSURE =      500
                                                    PRECONDITIONING TYPE SELECTED =    1
                                                           ACCELERATION PARAMETER =     1.0000    
                                       CONCENTRATION CHANGE CRITERION FOR CLOSURE =    0.10000E-06
                                       GCG CONCENTRATION CHANGE PRINTOUT INTERVAL =      999


                                   ++++++++++++++++++++++++++++++++++++++++++++++++++++++++++++++
                                                       STRESS PERIOD NO.  001
                                   ++++++++++++++++++++++++++++++++++++++++++++++++++++++++++++++


 LENGTH OF CURRENT STRESS PERIOD =   1.000000    
 NUMBER OF TIME STEPS FOR CURRENT STRESS PERIOD =  100
 TIME STEP MULTIPLIER USED IN FLOW SOLUTION =   1.000000    
 USER-SPECIFIED TRANSPORT STEPSIZE =   0.000000    D   
 MAXIMUM NUMBER OF TRANSPORT STEPS ALLOWED  IN ONE FLOW TIME STEP =     50000
 MULTIPLIER FOR SUCCESSIVE TRANSPORT STEPS  [USED IN IMPLICIT SCHEMES] =     1.000
 MAXIMUM TRANSPORT STEP SIZE  [USED IN IMPLICIT SCHEMES] =   0.000000    D   
1
                            STRESS PERIOD NO.    1, LENGTH =   1.000000    
                            -----------------------------------------------

                              NUMBER OF TIME STEPS =   100

                               MULTIPLIER FOR DELT =     1.000

                            INITIAL TIME STEP SIZE =  0.1000000E-01

 NO. OF POINT SINKS/SOURCES OF SPECIFIED CONCONCENTRATIONS =    0 IN STRESS PERIOD  1

 CHD NO.   LAYER   ROW   COL    START HEAD        END HEAD         
 ------------------------------------------------------------------
      1      1      1     31       20.00           20.00    
      2      1      1     32       20.00           20.00    
      3      1      1     33       20.00           20.00    
      4      1      1     34       20.00           20.00    
      5      1      1     35       20.00           20.00    
      6      1      1     36       20.00           20.00    
      7      1      1     37       20.00           20.00    
      8      1      1     38       20.00           20.00    
      9      1      1     39       20.00           20.00    
     10      1      1     40       20.00           20.00    
     11      1      1     41       20.00           20.00    
     12      1      1     42       20.00           20.00    
     13      1      1     43       20.00           20.00    
     14      1      1     44       20.00           20.00    
     15      1      1     45       20.00           20.00    
     16      1      1     46       20.00           20.00    
     17      1      1     47       20.00           20.00    
     18      1      1     48       20.00           20.00    
     19      1      1     49       20.00           20.00    
     20      1      1     50       20.00           20.00    
     21      1      1     51       20.00           20.00    
     22      1      1     52       20.00           20.00    
     23      1      1     53       20.00           20.00    
     24      1      1     54       20.00           20.00    
     25      1      1     55       20.00           20.00    
     26      1      1     56       20.00           20.00    
     27      1      1     57       20.00           20.00    
     28      1      1     58       20.00           20.00    
     29      1      1     59       20.00           20.00    
     30      1      1     60       20.00           20.00    
     31      1      1     61       20.00           20.00    
     32      1      1     62       20.00           20.00    
     33      1      1     63       20.00           20.00    
     34      1      1     64       20.00           20.00    
     35      1      1     65       20.00           20.00    
     36      1      1     66       20.00           20.00    
     37      1      1     67       20.00           20.00    
     38      1      1     68       20.00           20.00    
     39      1      1     69       20.00           20.00    
     40      1      1     70       20.00           20.00    
     41      1      2     31       20.00           20.00    
     42      1      2     32       20.00           20.00    
     43      1      2     33       20.00           20.00    
     44      1      2     34       20.00           20.00    
     45      1      2     35       20.00           20.00    
     46      1      2     36       20.00           20.00    
     47      1      2     37       20.00           20.00    
     48      1      2     38       20.00           20.00    
     49      1      2     39       20.00           20.00    
     50      1      2     40       20.00           20.00    
     51      1      2     41       20.00           20.00    
     52      1      2     42       20.00           20.00    
     53      1      2     43       20.00           20.00    
     54      1      2     44       20.00           20.00    
     55      1      2     45       20.00           20.00    
     56      1      2     46       20.00           20.00    
     57      1      2     47       20.00           20.00    
     58      1      2     48       20.00           20.00    
     59      1      2     49       20.00           20.00    
     60      1      2     50       20.00           20.00    
     61      1      2     51       20.00           20.00    
     62      1      2     52       20.00           20.00    
     63      1      2     53       20.00           20.00    
     64      1      2     54       20.00           20.00    
     65      1      2     55       20.00           20.00    
     66      1      2     56       20.00           20.00    
     67      1      2     57       20.00           20.00    
     68      1      2     58       20.00           20.00    
     69      1      2     59       20.00           20.00    
     70      1      2     60       20.00           20.00    
     71      1      2     61       20.00           20.00    
     72      1      2     62       20.00           20.00    
     73      1      2     63       20.00           20.00    
     74      1      2     64       20.00           20.00    
     75      1      2     65       20.00           20.00    
     76      1      2     66       20.00           20.00    
     77      1      2     67       20.00           20.00    
     78      1      2     68       20.00           20.00    
     79      1      2     69       20.00           20.00    
     80      1      2     70       20.00           20.00    
     81      1      3     31       20.00           20.00    
     82      1      3     32       20.00           20.00    
     83      1      3     33       20.00           20.00    
     84      1      3     34       20.00           20.00    
     85      1      3     35       20.00           20.00    
     86      1      3     36       20.00           20.00    
     87      1      3     37       20.00           20.00    
     88      1      3     38       20.00           20.00    
     89      1      3     39       20.00           20.00    
     90      1      3     40       20.00           20.00    
     91      1      3     41       20.00           20.00    
     92      1      3     42       20.00           20.00    
     93      1      3     43       20.00           20.00    
     94      1      3     44       20.00           20.00    
     95      1      3     45       20.00           20.00    
     96      1      3     46       20.00           20.00    
     97      1      3     47       20.00           20.00    
     98      1      3     48       20.00           20.00    
     99      1      3     49       20.00           20.00    
    100      1      3     50       20.00           20.00    
    101      1      3     51       20.00           20.00    
    102      1      3     52       20.00           20.00    
    103      1      3     53       20.00           20.00    
    104      1      3     54       20.00           20.00    
    105      1      3     55       20.00           20.00    
    106      1      3     56       20.00           20.00    
    107      1      3     57       20.00           20.00    
    108      1      3     58       20.00           20.00    
    109      1      3     59       20.00           20.00    
    110      1      3     60       20.00           20.00    
    111      1      3     61       20.00           20.00    
    112      1      3     62       20.00           20.00    
    113      1      3     63       20.00           20.00    
    114      1      3     64       20.00           20.00    
    115      1      3     65       20.00           20.00    
    116      1      3     66       20.00           20.00    
    117      1      3     67       20.00           20.00    
    118      1      3     68       20.00           20.00    
    119      1      3     69       20.00           20.00    
    120      1      3     70       20.00           20.00    


    120 TIME-VARIANT SPECIFIED-HEAD CELLS


                                          ================================================
                                                         FROM TIME =   0.0000     TO   0.10000E-01

 
 SOLVING FOR HEAD 
 FLOW MODEL IS TRANSIENT
 FLOW MODEL CONTAINS CONSTANT-HEAD CELLS


 MAXIMUM STEPSIZE DURING WHICH ANY PARTICLE CANNOT MOVE MORE THAN ONE CELL
<<<<<<< Updated upstream
 =  1.144    (WHEN MIN. R.F.=1)  AT K=   3, I=   2, J=  29

 MAXIMUM STEPSIZE WHICH MEETS STABILITY CRITERION OF THE ADVECTION TERM
 (FOR PURE FINITE-DIFFERENCE OPTION, MIXELM=0) 
 = 0.7940    (WHEN MIN. R.F.=1)  AT K=   3, I=   2, J=  28
=======
 =  1.304    (WHEN MIN. R.F.=1)  AT K=   3, I=   2, J=  31

 MAXIMUM STEPSIZE WHICH MEETS STABILITY CRITERION OF THE ADVECTION TERM
 (FOR PURE FINITE-DIFFERENCE OPTION, MIXELM=0) 
 = 0.8712    (WHEN MIN. R.F.=1)  AT K=   3, I=   2, J=  30
>>>>>>> Stashed changes


 TOTAL NUMBER OF POINT SOURCES/SINKS PRESENT IN THE FLOW MODEL =   240

 MAXIMUM STEPSIZE WHICH MEETS STABILITY CRITERION OF THE SINK & SOURCE TERM
 = 0.1000E+31(WHEN MIN. R.F.=1)  AT K=   0, I=   0, J=   0

 MAXIMUM STEPSIZE WHICH MEETS STABILITY CRITERION OF THE DISPERSION TERM
<<<<<<< Updated upstream
 = 0.4322E-01(WHEN MIN. R.F.=1)  AT K=   3, I=   2, J=  31
=======
 = 0.4679E-01(WHEN MIN. R.F.=1)  AT K=   3, I=   2, J=  30
>>>>>>> Stashed changes


     1 CALLS TO GCG PACKAGE FOR TRANSPORT TIME STEP   1 IN FLOW TIME STEP   1 STRESS PERIOD   1
     3 TOTAL ITERATIONS

 OUTPUT CONTROL FOR STRESS PERIOD    1   TIME STEP   1
    SAVE HEAD FOR ALL LAYERS
    SAVE BUDGET
 
 SOLVING FOR HEAD 
 FLOW MODEL IS TRANSIENT
 FLOW MODEL CONTAINS CONSTANT-HEAD CELLS


 MAXIMUM STEPSIZE DURING WHICH ANY PARTICLE CANNOT MOVE MORE THAN ONE CELL
<<<<<<< Updated upstream
 =  1.076    (WHEN MIN. R.F.=1)  AT K=   3, I=   2, J=  29

 MAXIMUM STEPSIZE WHICH MEETS STABILITY CRITERION OF THE ADVECTION TERM
 (FOR PURE FINITE-DIFFERENCE OPTION, MIXELM=0) 
 = 0.7466    (WHEN MIN. R.F.=1)  AT K=   3, I=   2, J=  28
=======
 =  1.225    (WHEN MIN. R.F.=1)  AT K=   3, I=   2, J=  31

 MAXIMUM STEPSIZE WHICH MEETS STABILITY CRITERION OF THE ADVECTION TERM
 (FOR PURE FINITE-DIFFERENCE OPTION, MIXELM=0) 
 = 0.8185    (WHEN MIN. R.F.=1)  AT K=   3, I=   2, J=  30
>>>>>>> Stashed changes


 TOTAL NUMBER OF POINT SOURCES/SINKS PRESENT IN THE FLOW MODEL =   240

 MAXIMUM STEPSIZE WHICH MEETS STABILITY CRITERION OF THE SINK & SOURCE TERM
 = 0.1000E+31(WHEN MIN. R.F.=1)  AT K=   0, I=   0, J=   0

 MAXIMUM STEPSIZE WHICH MEETS STABILITY CRITERION OF THE DISPERSION TERM
<<<<<<< Updated upstream
 = 0.4064E-01(WHEN MIN. R.F.=1)  AT K=   3, I=   2, J=  31
=======
 = 0.4402E-01(WHEN MIN. R.F.=1)  AT K=   3, I=   2, J=  30
>>>>>>> Stashed changes
     1 CALLS TO GCG PACKAGE FOR TRANSPORT TIME STEP   2 IN FLOW TIME STEP   1 STRESS PERIOD   1
     5 TOTAL ITERATIONS
  MAXIMUM CONCENTRATION CHANGES FOR EACH ITERATION:
  MAX. CHANGE LAYER,ROW,COL MAX. CHANGE LAYER,ROW,COL MAX. CHANGE LAYER,ROW,COL MAX. CHANGE LAYER,ROW,COL MAX. CHANGE LAYER,ROW,COL
 ------------------------------------------------------------------------------------------------------------------------------------
<<<<<<< Updated upstream
   0.6850E-02 (  2,  2, 43)  0.1659E-03 (  3,  2, 43)  0.6666E-05 (  4,  2, 33)  0.4339E-06 (  3,  3, 31)  0.2486E-07 (  4,  3, 31)
=======
   0.7632E-02 (  2,  1, 38)  0.3211E-03 (  3,  2, 37)  0.1829E-04 (  4,  2, 37)  0.5710E-06 (  3,  2, 37)  0.2249E-07 (  4,  2, 37)
>>>>>>> Stashed changes
 UBDSV2 SAVING "   CONSTANT HEAD" ON UNIT  53 AT TIME STEP  1, STRESS PERIOD   1
 UBDSV1 SAVING "FLOW RIGHT FACE " ON UNIT  53 AT TIME STEP  1, STRESS PERIOD   1
 UBDSV1 SAVING "FLOW FRONT FACE " ON UNIT  53 AT TIME STEP  1, STRESS PERIOD   1
 UBDSV1 SAVING "FLOW LOWER FACE " ON UNIT  53 AT TIME STEP  1, STRESS PERIOD   1
 UBDSV1 SAVING "            DCDT" ON UNIT  53 AT TIME STEP  1, STRESS PERIOD   1

 HEAD WILL BE SAVED ON UNIT   51 AT END OF TIME STEP   1, STRESS PERIOD    1


                                          ================================================
                                                         FROM TIME =  0.10000E-01 TO   0.20000E-01

 
 SOLVING FOR HEAD 
 FLOW MODEL IS TRANSIENT
 FLOW MODEL CONTAINS CONSTANT-HEAD CELLS


 MAXIMUM STEPSIZE DURING WHICH ANY PARTICLE CANNOT MOVE MORE THAN ONE CELL
<<<<<<< Updated upstream
 =  1.079    (WHEN MIN. R.F.=1)  AT K=   3, I=   2, J=  29

 MAXIMUM STEPSIZE WHICH MEETS STABILITY CRITERION OF THE ADVECTION TERM
 (FOR PURE FINITE-DIFFERENCE OPTION, MIXELM=0) 
 = 0.7487    (WHEN MIN. R.F.=1)  AT K=   3, I=   2, J=  28
=======
 =  1.233    (WHEN MIN. R.F.=1)  AT K=   3, I=   2, J=  31

 MAXIMUM STEPSIZE WHICH MEETS STABILITY CRITERION OF THE ADVECTION TERM
 (FOR PURE FINITE-DIFFERENCE OPTION, MIXELM=0) 
 = 0.8234    (WHEN MIN. R.F.=1)  AT K=   3, I=   2, J=  30
>>>>>>> Stashed changes


 TOTAL NUMBER OF POINT SOURCES/SINKS PRESENT IN THE FLOW MODEL =   240

 MAXIMUM STEPSIZE WHICH MEETS STABILITY CRITERION OF THE SINK & SOURCE TERM
 = 0.1000E+31(WHEN MIN. R.F.=1)  AT K=   0, I=   0, J=   0

 MAXIMUM STEPSIZE WHICH MEETS STABILITY CRITERION OF THE DISPERSION TERM
<<<<<<< Updated upstream
 = 0.4077E-01(WHEN MIN. R.F.=1)  AT K=   3, I=   2, J=  31
=======
 = 0.4431E-01(WHEN MIN. R.F.=1)  AT K=   3, I=   2, J=  30
>>>>>>> Stashed changes


     1 CALLS TO GCG PACKAGE FOR TRANSPORT TIME STEP   1 IN FLOW TIME STEP   2 STRESS PERIOD   1
     5 TOTAL ITERATIONS
  MAXIMUM CONCENTRATION CHANGES FOR EACH ITERATION:
  MAX. CHANGE LAYER,ROW,COL MAX. CHANGE LAYER,ROW,COL MAX. CHANGE LAYER,ROW,COL MAX. CHANGE LAYER,ROW,COL MAX. CHANGE LAYER,ROW,COL
 ------------------------------------------------------------------------------------------------------------------------------------
<<<<<<< Updated upstream
   0.6564E-02 (  2,  2, 43)  0.1726E-03 (  3,  2, 43)  0.8985E-05 (  4,  2, 33)  0.5996E-06 (  3,  3, 31)  0.3631E-07 (  4,  3, 31)
=======
   0.7618E-02 (  2,  1, 37)  0.3447E-03 (  3,  2, 37)  0.2078E-04 (  4,  2, 37)  0.6674E-06 (  3,  2, 37)  0.2781E-07 (  4,  2, 37)
>>>>>>> Stashed changes

 OUTPUT CONTROL FOR STRESS PERIOD    1   TIME STEP   2
    SAVE HEAD FOR ALL LAYERS
    SAVE BUDGET
 UBDSV2 SAVING "   CONSTANT HEAD" ON UNIT  53 AT TIME STEP  2, STRESS PERIOD   1
 UBDSV1 SAVING "FLOW RIGHT FACE " ON UNIT  53 AT TIME STEP  2, STRESS PERIOD   1
 UBDSV1 SAVING "FLOW FRONT FACE " ON UNIT  53 AT TIME STEP  2, STRESS PERIOD   1
 UBDSV1 SAVING "FLOW LOWER FACE " ON UNIT  53 AT TIME STEP  2, STRESS PERIOD   1
 UBDSV1 SAVING "            DCDT" ON UNIT  53 AT TIME STEP  2, STRESS PERIOD   1

 HEAD WILL BE SAVED ON UNIT   51 AT END OF TIME STEP   2, STRESS PERIOD    1


                                          ================================================
                                                         FROM TIME =  0.20000E-01 TO   0.30000E-01

 
 SOLVING FOR HEAD 
 FLOW MODEL IS TRANSIENT
 FLOW MODEL CONTAINS CONSTANT-HEAD CELLS


 MAXIMUM STEPSIZE DURING WHICH ANY PARTICLE CANNOT MOVE MORE THAN ONE CELL
<<<<<<< Updated upstream
 =  1.082    (WHEN MIN. R.F.=1)  AT K=   3, I=   2, J=  29

 MAXIMUM STEPSIZE WHICH MEETS STABILITY CRITERION OF THE ADVECTION TERM
 (FOR PURE FINITE-DIFFERENCE OPTION, MIXELM=0) 
 = 0.7509    (WHEN MIN. R.F.=1)  AT K=   3, I=   2, J=  28
=======
 =  1.236    (WHEN MIN. R.F.=1)  AT K=   3, I=   2, J=  31

 MAXIMUM STEPSIZE WHICH MEETS STABILITY CRITERION OF THE ADVECTION TERM
 (FOR PURE FINITE-DIFFERENCE OPTION, MIXELM=0) 
 = 0.8253    (WHEN MIN. R.F.=1)  AT K=   3, I=   2, J=  30
>>>>>>> Stashed changes


 TOTAL NUMBER OF POINT SOURCES/SINKS PRESENT IN THE FLOW MODEL =   240

 MAXIMUM STEPSIZE WHICH MEETS STABILITY CRITERION OF THE SINK & SOURCE TERM
 = 0.1000E+31(WHEN MIN. R.F.=1)  AT K=   0, I=   0, J=   0

 MAXIMUM STEPSIZE WHICH MEETS STABILITY CRITERION OF THE DISPERSION TERM
<<<<<<< Updated upstream
 = 0.4089E-01(WHEN MIN. R.F.=1)  AT K=   3, I=   2, J=  31
=======
 = 0.4441E-01(WHEN MIN. R.F.=1)  AT K=   3, I=   2, J=  30
>>>>>>> Stashed changes


     1 CALLS TO GCG PACKAGE FOR TRANSPORT TIME STEP   1 IN FLOW TIME STEP   3 STRESS PERIOD   1
     5 TOTAL ITERATIONS
  MAXIMUM CONCENTRATION CHANGES FOR EACH ITERATION:
  MAX. CHANGE LAYER,ROW,COL MAX. CHANGE LAYER,ROW,COL MAX. CHANGE LAYER,ROW,COL MAX. CHANGE LAYER,ROW,COL MAX. CHANGE LAYER,ROW,COL
 ------------------------------------------------------------------------------------------------------------------------------------
<<<<<<< Updated upstream
   0.6196E-02 (  2,  2, 43)  0.1649E-03 (  3,  2, 43)  0.8728E-05 (  4,  2, 33)  0.5826E-06 (  3,  3, 31)  0.3453E-07 (  4,  3, 31)
=======
   0.7339E-02 (  2,  1, 37)  0.3306E-03 (  3,  2, 37)  0.1934E-04 (  4,  2, 37)  0.6486E-06 (  3,  2, 37)  0.2643E-07 (  4,  2, 37)

 OUTPUT CONTROL FOR STRESS PERIOD    1   TIME STEP   3
    SAVE HEAD FOR ALL LAYERS
    SAVE BUDGET
 UBDSV2 SAVING "   CONSTANT HEAD" ON UNIT  53 AT TIME STEP  3, STRESS PERIOD   1
 UBDSV1 SAVING "FLOW RIGHT FACE " ON UNIT  53 AT TIME STEP  3, STRESS PERIOD   1
 UBDSV1 SAVING "FLOW FRONT FACE " ON UNIT  53 AT TIME STEP  3, STRESS PERIOD   1
 UBDSV1 SAVING "FLOW LOWER FACE " ON UNIT  53 AT TIME STEP  3, STRESS PERIOD   1
 UBDSV1 SAVING "            DCDT" ON UNIT  53 AT TIME STEP  3, STRESS PERIOD   1
>>>>>>> Stashed changes

 HEAD WILL BE SAVED ON UNIT   51 AT END OF TIME STEP   3, STRESS PERIOD    1


                                          ================================================
                                                         FROM TIME =  0.30000E-01 TO   0.40000E-01

 
 SOLVING FOR HEAD 
 FLOW MODEL IS TRANSIENT
 FLOW MODEL CONTAINS CONSTANT-HEAD CELLS


 MAXIMUM STEPSIZE DURING WHICH ANY PARTICLE CANNOT MOVE MORE THAN ONE CELL
<<<<<<< Updated upstream
 =  1.082    (WHEN MIN. R.F.=1)  AT K=   3, I=   2, J=  29

 MAXIMUM STEPSIZE WHICH MEETS STABILITY CRITERION OF THE ADVECTION TERM
 (FOR PURE FINITE-DIFFERENCE OPTION, MIXELM=0) 
 = 0.7506    (WHEN MIN. R.F.=1)  AT K=   3, I=   2, J=  28
=======
 =  1.234    (WHEN MIN. R.F.=1)  AT K=   3, I=   2, J=  31

 MAXIMUM STEPSIZE WHICH MEETS STABILITY CRITERION OF THE ADVECTION TERM
 (FOR PURE FINITE-DIFFERENCE OPTION, MIXELM=0) 
 = 0.8241    (WHEN MIN. R.F.=1)  AT K=   3, I=   2, J=  30
>>>>>>> Stashed changes


 TOTAL NUMBER OF POINT SOURCES/SINKS PRESENT IN THE FLOW MODEL =   240

 MAXIMUM STEPSIZE WHICH MEETS STABILITY CRITERION OF THE SINK & SOURCE TERM
 = 0.1000E+31(WHEN MIN. R.F.=1)  AT K=   0, I=   0, J=   0

 MAXIMUM STEPSIZE WHICH MEETS STABILITY CRITERION OF THE DISPERSION TERM
<<<<<<< Updated upstream
 = 0.4087E-01(WHEN MIN. R.F.=1)  AT K=   3, I=   2, J=  31
=======
 = 0.4434E-01(WHEN MIN. R.F.=1)  AT K=   3, I=   2, J=  30
>>>>>>> Stashed changes


     1 CALLS TO GCG PACKAGE FOR TRANSPORT TIME STEP   1 IN FLOW TIME STEP   4 STRESS PERIOD   1
     5 TOTAL ITERATIONS
  MAXIMUM CONCENTRATION CHANGES FOR EACH ITERATION:
  MAX. CHANGE LAYER,ROW,COL MAX. CHANGE LAYER,ROW,COL MAX. CHANGE LAYER,ROW,COL MAX. CHANGE LAYER,ROW,COL MAX. CHANGE LAYER,ROW,COL
 ------------------------------------------------------------------------------------------------------------------------------------
<<<<<<< Updated upstream
   0.6231E-02 (  2,  2, 43)  0.1706E-03 (  3,  2, 43)  0.8653E-05 (  4,  2, 33)  0.5757E-06 (  3,  3, 31)  0.3374E-07 (  4,  3, 31)
=======
   0.7422E-02 (  2,  1, 38)  0.3349E-03 (  3,  2, 37)  0.1910E-04 (  4,  2, 37)  0.6567E-06 (  3,  2, 37)  0.2649E-07 (  4,  2, 37)

 OUTPUT CONTROL FOR STRESS PERIOD    1   TIME STEP   4
    SAVE HEAD FOR ALL LAYERS
    SAVE BUDGET
 UBDSV2 SAVING "   CONSTANT HEAD" ON UNIT  53 AT TIME STEP  4, STRESS PERIOD   1
 UBDSV1 SAVING "FLOW RIGHT FACE " ON UNIT  53 AT TIME STEP  4, STRESS PERIOD   1
 UBDSV1 SAVING "FLOW FRONT FACE " ON UNIT  53 AT TIME STEP  4, STRESS PERIOD   1
 UBDSV1 SAVING "FLOW LOWER FACE " ON UNIT  53 AT TIME STEP  4, STRESS PERIOD   1
 UBDSV1 SAVING "            DCDT" ON UNIT  53 AT TIME STEP  4, STRESS PERIOD   1
>>>>>>> Stashed changes

 HEAD WILL BE SAVED ON UNIT   51 AT END OF TIME STEP   4, STRESS PERIOD    1


                                          ================================================
                                                         FROM TIME =  0.40000E-01 TO   0.50000E-01

 
 SOLVING FOR HEAD 
 FLOW MODEL IS TRANSIENT
 FLOW MODEL CONTAINS CONSTANT-HEAD CELLS


 MAXIMUM STEPSIZE DURING WHICH ANY PARTICLE CANNOT MOVE MORE THAN ONE CELL
<<<<<<< Updated upstream
 =  1.080    (WHEN MIN. R.F.=1)  AT K=   3, I=   2, J=  29

 MAXIMUM STEPSIZE WHICH MEETS STABILITY CRITERION OF THE ADVECTION TERM
 (FOR PURE FINITE-DIFFERENCE OPTION, MIXELM=0) 
 = 0.7497    (WHEN MIN. R.F.=1)  AT K=   3, I=   2, J=  28
=======
 =  1.233    (WHEN MIN. R.F.=1)  AT K=   3, I=   2, J=  31

 MAXIMUM STEPSIZE WHICH MEETS STABILITY CRITERION OF THE ADVECTION TERM
 (FOR PURE FINITE-DIFFERENCE OPTION, MIXELM=0) 
 = 0.8233    (WHEN MIN. R.F.=1)  AT K=   3, I=   2, J=  30
>>>>>>> Stashed changes


 TOTAL NUMBER OF POINT SOURCES/SINKS PRESENT IN THE FLOW MODEL =   240

 MAXIMUM STEPSIZE WHICH MEETS STABILITY CRITERION OF THE SINK & SOURCE TERM
 = 0.1000E+31(WHEN MIN. R.F.=1)  AT K=   0, I=   0, J=   0

 MAXIMUM STEPSIZE WHICH MEETS STABILITY CRITERION OF THE DISPERSION TERM
<<<<<<< Updated upstream
 = 0.4082E-01(WHEN MIN. R.F.=1)  AT K=   3, I=   2, J=  31
=======
 = 0.4430E-01(WHEN MIN. R.F.=1)  AT K=   3, I=   2, J=  30
>>>>>>> Stashed changes


     1 CALLS TO GCG PACKAGE FOR TRANSPORT TIME STEP   1 IN FLOW TIME STEP   5 STRESS PERIOD   1
     5 TOTAL ITERATIONS
  MAXIMUM CONCENTRATION CHANGES FOR EACH ITERATION:
  MAX. CHANGE LAYER,ROW,COL MAX. CHANGE LAYER,ROW,COL MAX. CHANGE LAYER,ROW,COL MAX. CHANGE LAYER,ROW,COL MAX. CHANGE LAYER,ROW,COL
 ------------------------------------------------------------------------------------------------------------------------------------
<<<<<<< Updated upstream
   0.6119E-02 (  2,  2, 43)  0.1712E-03 (  3,  2, 43)  0.8626E-05 (  4,  2, 33)  0.5645E-06 (  3,  3, 31)  0.3264E-07 (  4,  3, 31)
=======
   0.7362E-02 (  2,  1, 38)  0.3331E-03 (  3,  2, 37)  0.1843E-04 (  4,  2, 37)  0.6384E-06 (  3,  2, 37)  0.2532E-07 (  4,  2, 37)

 OUTPUT CONTROL FOR STRESS PERIOD    1   TIME STEP   5
    SAVE HEAD FOR ALL LAYERS
    SAVE BUDGET
 UBDSV2 SAVING "   CONSTANT HEAD" ON UNIT  53 AT TIME STEP  5, STRESS PERIOD   1
 UBDSV1 SAVING "FLOW RIGHT FACE " ON UNIT  53 AT TIME STEP  5, STRESS PERIOD   1
 UBDSV1 SAVING "FLOW FRONT FACE " ON UNIT  53 AT TIME STEP  5, STRESS PERIOD   1
 UBDSV1 SAVING "FLOW LOWER FACE " ON UNIT  53 AT TIME STEP  5, STRESS PERIOD   1
 UBDSV1 SAVING "            DCDT" ON UNIT  53 AT TIME STEP  5, STRESS PERIOD   1
>>>>>>> Stashed changes

 HEAD WILL BE SAVED ON UNIT   51 AT END OF TIME STEP   5, STRESS PERIOD    1


                                          ================================================
                                                         FROM TIME =  0.50000E-01 TO   0.60000E-01

 
 SOLVING FOR HEAD 
 FLOW MODEL IS TRANSIENT
 FLOW MODEL CONTAINS CONSTANT-HEAD CELLS


 MAXIMUM STEPSIZE DURING WHICH ANY PARTICLE CANNOT MOVE MORE THAN ONE CELL
<<<<<<< Updated upstream
 =  1.080    (WHEN MIN. R.F.=1)  AT K=   3, I=   2, J=  29

 MAXIMUM STEPSIZE WHICH MEETS STABILITY CRITERION OF THE ADVECTION TERM
 (FOR PURE FINITE-DIFFERENCE OPTION, MIXELM=0) 
 = 0.7495    (WHEN MIN. R.F.=1)  AT K=   3, I=   2, J=  28
=======
 =  1.232    (WHEN MIN. R.F.=1)  AT K=   3, I=   2, J=  31

 MAXIMUM STEPSIZE WHICH MEETS STABILITY CRITERION OF THE ADVECTION TERM
 (FOR PURE FINITE-DIFFERENCE OPTION, MIXELM=0) 
 = 0.8232    (WHEN MIN. R.F.=1)  AT K=   3, I=   2, J=  30
>>>>>>> Stashed changes


 TOTAL NUMBER OF POINT SOURCES/SINKS PRESENT IN THE FLOW MODEL =   240

 MAXIMUM STEPSIZE WHICH MEETS STABILITY CRITERION OF THE SINK & SOURCE TERM
 = 0.1000E+31(WHEN MIN. R.F.=1)  AT K=   0, I=   0, J=   0

 MAXIMUM STEPSIZE WHICH MEETS STABILITY CRITERION OF THE DISPERSION TERM
<<<<<<< Updated upstream
 = 0.4081E-01(WHEN MIN. R.F.=1)  AT K=   3, I=   2, J=  31
=======
 = 0.4429E-01(WHEN MIN. R.F.=1)  AT K=   3, I=   2, J=  30
>>>>>>> Stashed changes


     1 CALLS TO GCG PACKAGE FOR TRANSPORT TIME STEP   1 IN FLOW TIME STEP   6 STRESS PERIOD   1
     5 TOTAL ITERATIONS
  MAXIMUM CONCENTRATION CHANGES FOR EACH ITERATION:
  MAX. CHANGE LAYER,ROW,COL MAX. CHANGE LAYER,ROW,COL MAX. CHANGE LAYER,ROW,COL MAX. CHANGE LAYER,ROW,COL MAX. CHANGE LAYER,ROW,COL
 ------------------------------------------------------------------------------------------------------------------------------------
<<<<<<< Updated upstream
   0.5915E-02 (  2,  2, 43)  0.1683E-03 (  3,  2, 43)  0.8544E-05 (  4,  2, 33)  0.5525E-06 (  3,  3, 31)  0.3152E-07 (  4,  3, 31)
=======
   0.7243E-02 (  2,  1, 38)  0.3281E-03 (  3,  2, 37)  0.1761E-04 (  4,  2, 37)  0.6191E-06 (  3,  2, 37)  0.2411E-07 (  4,  2, 37)
>>>>>>> Stashed changes

 OUTPUT CONTROL FOR STRESS PERIOD    1   TIME STEP   6
    SAVE HEAD FOR ALL LAYERS
    SAVE BUDGET
 UBDSV2 SAVING "   CONSTANT HEAD" ON UNIT  53 AT TIME STEP  6, STRESS PERIOD   1
 UBDSV1 SAVING "FLOW RIGHT FACE " ON UNIT  53 AT TIME STEP  6, STRESS PERIOD   1
 UBDSV1 SAVING "FLOW FRONT FACE " ON UNIT  53 AT TIME STEP  6, STRESS PERIOD   1
 UBDSV1 SAVING "FLOW LOWER FACE " ON UNIT  53 AT TIME STEP  6, STRESS PERIOD   1
 UBDSV1 SAVING "            DCDT" ON UNIT  53 AT TIME STEP  6, STRESS PERIOD   1

 HEAD WILL BE SAVED ON UNIT   51 AT END OF TIME STEP   6, STRESS PERIOD    1


                                          ================================================
                                                         FROM TIME =  0.60000E-01 TO   0.70000E-01

 
 SOLVING FOR HEAD 
 FLOW MODEL IS TRANSIENT
 FLOW MODEL CONTAINS CONSTANT-HEAD CELLS


 MAXIMUM STEPSIZE DURING WHICH ANY PARTICLE CANNOT MOVE MORE THAN ONE CELL
<<<<<<< Updated upstream
 =  1.080    (WHEN MIN. R.F.=1)  AT K=   3, I=   2, J=  29

 MAXIMUM STEPSIZE WHICH MEETS STABILITY CRITERION OF THE ADVECTION TERM
 (FOR PURE FINITE-DIFFERENCE OPTION, MIXELM=0) 
 = 0.7494    (WHEN MIN. R.F.=1)  AT K=   3, I=   2, J=  28
=======
 =  1.232    (WHEN MIN. R.F.=1)  AT K=   3, I=   2, J=  31

 MAXIMUM STEPSIZE WHICH MEETS STABILITY CRITERION OF THE ADVECTION TERM
 (FOR PURE FINITE-DIFFERENCE OPTION, MIXELM=0) 
 = 0.8231    (WHEN MIN. R.F.=1)  AT K=   3, I=   2, J=  30
>>>>>>> Stashed changes


 TOTAL NUMBER OF POINT SOURCES/SINKS PRESENT IN THE FLOW MODEL =   240

 MAXIMUM STEPSIZE WHICH MEETS STABILITY CRITERION OF THE SINK & SOURCE TERM
 = 0.1000E+31(WHEN MIN. R.F.=1)  AT K=   0, I=   0, J=   0

 MAXIMUM STEPSIZE WHICH MEETS STABILITY CRITERION OF THE DISPERSION TERM
<<<<<<< Updated upstream
 = 0.4080E-01(WHEN MIN. R.F.=1)  AT K=   3, I=   2, J=  31
=======
 = 0.4428E-01(WHEN MIN. R.F.=1)  AT K=   3, I=   2, J=  30
>>>>>>> Stashed changes


     1 CALLS TO GCG PACKAGE FOR TRANSPORT TIME STEP   1 IN FLOW TIME STEP   7 STRESS PERIOD   1
     5 TOTAL ITERATIONS
  MAXIMUM CONCENTRATION CHANGES FOR EACH ITERATION:
  MAX. CHANGE LAYER,ROW,COL MAX. CHANGE LAYER,ROW,COL MAX. CHANGE LAYER,ROW,COL MAX. CHANGE LAYER,ROW,COL MAX. CHANGE LAYER,ROW,COL
 ------------------------------------------------------------------------------------------------------------------------------------
<<<<<<< Updated upstream
   0.5754E-02 (  2,  2, 43)  0.1666E-03 (  3,  2, 43)  0.8444E-05 (  4,  2, 33)  0.5429E-06 (  3,  3, 31)  0.3062E-07 (  4,  3, 31)
=======
   0.7157E-02 (  2,  1, 38)  0.3245E-03 (  3,  2, 37)  0.1694E-04 (  4,  2, 37)  0.6073E-06 (  3,  2, 37)  0.2331E-07 (  4,  2, 37)

 OUTPUT CONTROL FOR STRESS PERIOD    1   TIME STEP   7
    SAVE HEAD FOR ALL LAYERS
    SAVE BUDGET
 UBDSV2 SAVING "   CONSTANT HEAD" ON UNIT  53 AT TIME STEP  7, STRESS PERIOD   1
 UBDSV1 SAVING "FLOW RIGHT FACE " ON UNIT  53 AT TIME STEP  7, STRESS PERIOD   1
 UBDSV1 SAVING "FLOW FRONT FACE " ON UNIT  53 AT TIME STEP  7, STRESS PERIOD   1
 UBDSV1 SAVING "FLOW LOWER FACE " ON UNIT  53 AT TIME STEP  7, STRESS PERIOD   1
 UBDSV1 SAVING "            DCDT" ON UNIT  53 AT TIME STEP  7, STRESS PERIOD   1
>>>>>>> Stashed changes

 HEAD WILL BE SAVED ON UNIT   51 AT END OF TIME STEP   7, STRESS PERIOD    1


                                          ================================================
                                                         FROM TIME =  0.70000E-01 TO   0.80000E-01

 
 SOLVING FOR HEAD 
 FLOW MODEL IS TRANSIENT
 FLOW MODEL CONTAINS CONSTANT-HEAD CELLS


 MAXIMUM STEPSIZE DURING WHICH ANY PARTICLE CANNOT MOVE MORE THAN ONE CELL
<<<<<<< Updated upstream
 =  1.080    (WHEN MIN. R.F.=1)  AT K=   3, I=   2, J=  29

 MAXIMUM STEPSIZE WHICH MEETS STABILITY CRITERION OF THE ADVECTION TERM
 (FOR PURE FINITE-DIFFERENCE OPTION, MIXELM=0) 
 = 0.7493    (WHEN MIN. R.F.=1)  AT K=   3, I=   2, J=  28
=======
 =  1.232    (WHEN MIN. R.F.=1)  AT K=   3, I=   2, J=  31

 MAXIMUM STEPSIZE WHICH MEETS STABILITY CRITERION OF THE ADVECTION TERM
 (FOR PURE FINITE-DIFFERENCE OPTION, MIXELM=0) 
 = 0.8229    (WHEN MIN. R.F.=1)  AT K=   3, I=   2, J=  30
>>>>>>> Stashed changes


 TOTAL NUMBER OF POINT SOURCES/SINKS PRESENT IN THE FLOW MODEL =   240

 MAXIMUM STEPSIZE WHICH MEETS STABILITY CRITERION OF THE SINK & SOURCE TERM
 = 0.1000E+31(WHEN MIN. R.F.=1)  AT K=   0, I=   0, J=   0

 MAXIMUM STEPSIZE WHICH MEETS STABILITY CRITERION OF THE DISPERSION TERM
<<<<<<< Updated upstream
 = 0.4079E-01(WHEN MIN. R.F.=1)  AT K=   3, I=   2, J=  31
=======
 = 0.4427E-01(WHEN MIN. R.F.=1)  AT K=   3, I=   2, J=  30
>>>>>>> Stashed changes


     1 CALLS TO GCG PACKAGE FOR TRANSPORT TIME STEP   1 IN FLOW TIME STEP   8 STRESS PERIOD   1
     5 TOTAL ITERATIONS
  MAXIMUM CONCENTRATION CHANGES FOR EACH ITERATION:
  MAX. CHANGE LAYER,ROW,COL MAX. CHANGE LAYER,ROW,COL MAX. CHANGE LAYER,ROW,COL MAX. CHANGE LAYER,ROW,COL MAX. CHANGE LAYER,ROW,COL
 ------------------------------------------------------------------------------------------------------------------------------------
<<<<<<< Updated upstream
   0.5622E-02 (  2,  2, 43)  0.1655E-03 (  3,  2, 43)  0.8352E-05 (  4,  2, 33)  0.5346E-06 (  3,  3, 31)  0.2985E-07 (  4,  3, 31)
=======
   0.7076E-02 (  2,  1, 38)  0.3215E-03 (  3,  2, 37)  0.1635E-04 (  4,  2, 37)  0.5972E-06 (  3,  2, 37)  0.2262E-07 (  4,  2, 37)

 OUTPUT CONTROL FOR STRESS PERIOD    1   TIME STEP   8
    SAVE HEAD FOR ALL LAYERS
    SAVE BUDGET
 UBDSV2 SAVING "   CONSTANT HEAD" ON UNIT  53 AT TIME STEP  8, STRESS PERIOD   1
 UBDSV1 SAVING "FLOW RIGHT FACE " ON UNIT  53 AT TIME STEP  8, STRESS PERIOD   1
 UBDSV1 SAVING "FLOW FRONT FACE " ON UNIT  53 AT TIME STEP  8, STRESS PERIOD   1
 UBDSV1 SAVING "FLOW LOWER FACE " ON UNIT  53 AT TIME STEP  8, STRESS PERIOD   1
 UBDSV1 SAVING "            DCDT" ON UNIT  53 AT TIME STEP  8, STRESS PERIOD   1
>>>>>>> Stashed changes

 HEAD WILL BE SAVED ON UNIT   51 AT END OF TIME STEP   8, STRESS PERIOD    1


                                          ================================================
                                                         FROM TIME =  0.80000E-01 TO   0.90000E-01

 
 SOLVING FOR HEAD 
 FLOW MODEL IS TRANSIENT
 FLOW MODEL CONTAINS CONSTANT-HEAD CELLS


 MAXIMUM STEPSIZE DURING WHICH ANY PARTICLE CANNOT MOVE MORE THAN ONE CELL
<<<<<<< Updated upstream
 =  1.080    (WHEN MIN. R.F.=1)  AT K=   3, I=   2, J=  29

 MAXIMUM STEPSIZE WHICH MEETS STABILITY CRITERION OF THE ADVECTION TERM
 (FOR PURE FINITE-DIFFERENCE OPTION, MIXELM=0) 
 = 0.7491    (WHEN MIN. R.F.=1)  AT K=   3, I=   2, J=  28
=======
 =  1.232    (WHEN MIN. R.F.=1)  AT K=   3, I=   2, J=  31

 MAXIMUM STEPSIZE WHICH MEETS STABILITY CRITERION OF THE ADVECTION TERM
 (FOR PURE FINITE-DIFFERENCE OPTION, MIXELM=0) 
 = 0.8229    (WHEN MIN. R.F.=1)  AT K=   3, I=   2, J=  30
>>>>>>> Stashed changes


 TOTAL NUMBER OF POINT SOURCES/SINKS PRESENT IN THE FLOW MODEL =   240

 MAXIMUM STEPSIZE WHICH MEETS STABILITY CRITERION OF THE SINK & SOURCE TERM
 = 0.1000E+31(WHEN MIN. R.F.=1)  AT K=   0, I=   0, J=   0

 MAXIMUM STEPSIZE WHICH MEETS STABILITY CRITERION OF THE DISPERSION TERM
<<<<<<< Updated upstream
 = 0.4078E-01(WHEN MIN. R.F.=1)  AT K=   3, I=   2, J=  31
=======
 = 0.4426E-01(WHEN MIN. R.F.=1)  AT K=   3, I=   2, J=  30
>>>>>>> Stashed changes


     1 CALLS TO GCG PACKAGE FOR TRANSPORT TIME STEP   1 IN FLOW TIME STEP   9 STRESS PERIOD   1
     5 TOTAL ITERATIONS
  MAXIMUM CONCENTRATION CHANGES FOR EACH ITERATION:
  MAX. CHANGE LAYER,ROW,COL MAX. CHANGE LAYER,ROW,COL MAX. CHANGE LAYER,ROW,COL MAX. CHANGE LAYER,ROW,COL MAX. CHANGE LAYER,ROW,COL
 ------------------------------------------------------------------------------------------------------------------------------------
<<<<<<< Updated upstream
   0.5485E-02 (  2,  2, 43)  0.1641E-03 (  3,  2, 43)  0.8261E-05 (  4,  2, 33)  0.5266E-06 (  3,  3, 31)  0.2914E-07 (  4,  3, 31)
=======
   0.6984E-02 (  2,  1, 38)  0.3182E-03 (  3,  2, 37)  0.1579E-04 (  4,  2, 37)  0.5872E-06 (  3,  2, 37)  0.2197E-07 (  4,  2, 37)

 OUTPUT CONTROL FOR STRESS PERIOD    1   TIME STEP   9
    SAVE HEAD FOR ALL LAYERS
    SAVE BUDGET
 UBDSV2 SAVING "   CONSTANT HEAD" ON UNIT  53 AT TIME STEP  9, STRESS PERIOD   1
 UBDSV1 SAVING "FLOW RIGHT FACE " ON UNIT  53 AT TIME STEP  9, STRESS PERIOD   1
 UBDSV1 SAVING "FLOW FRONT FACE " ON UNIT  53 AT TIME STEP  9, STRESS PERIOD   1
 UBDSV1 SAVING "FLOW LOWER FACE " ON UNIT  53 AT TIME STEP  9, STRESS PERIOD   1
 UBDSV1 SAVING "            DCDT" ON UNIT  53 AT TIME STEP  9, STRESS PERIOD   1
>>>>>>> Stashed changes

 HEAD WILL BE SAVED ON UNIT   51 AT END OF TIME STEP   9, STRESS PERIOD    1


                                          ================================================
                                                         FROM TIME =  0.90000E-01 TO   0.10000    

 
 SOLVING FOR HEAD 
 FLOW MODEL IS TRANSIENT
 FLOW MODEL CONTAINS CONSTANT-HEAD CELLS


 MAXIMUM STEPSIZE DURING WHICH ANY PARTICLE CANNOT MOVE MORE THAN ONE CELL
<<<<<<< Updated upstream
 =  1.080    (WHEN MIN. R.F.=1)  AT K=   3, I=   2, J=  29

 MAXIMUM STEPSIZE WHICH MEETS STABILITY CRITERION OF THE ADVECTION TERM
 (FOR PURE FINITE-DIFFERENCE OPTION, MIXELM=0) 
 = 0.7491    (WHEN MIN. R.F.=1)  AT K=   3, I=   2, J=  28
=======
 =  1.232    (WHEN MIN. R.F.=1)  AT K=   3, I=   2, J=  31

 MAXIMUM STEPSIZE WHICH MEETS STABILITY CRITERION OF THE ADVECTION TERM
 (FOR PURE FINITE-DIFFERENCE OPTION, MIXELM=0) 
 = 0.8229    (WHEN MIN. R.F.=1)  AT K=   3, I=   2, J=  30
>>>>>>> Stashed changes


 TOTAL NUMBER OF POINT SOURCES/SINKS PRESENT IN THE FLOW MODEL =   240

 MAXIMUM STEPSIZE WHICH MEETS STABILITY CRITERION OF THE SINK & SOURCE TERM
 = 0.1000E+31(WHEN MIN. R.F.=1)  AT K=   0, I=   0, J=   0

 MAXIMUM STEPSIZE WHICH MEETS STABILITY CRITERION OF THE DISPERSION TERM
<<<<<<< Updated upstream
 = 0.4078E-01(WHEN MIN. R.F.=1)  AT K=   3, I=   2, J=  31
=======
 = 0.4426E-01(WHEN MIN. R.F.=1)  AT K=   3, I=   2, J=  30
>>>>>>> Stashed changes


     1 CALLS TO GCG PACKAGE FOR TRANSPORT TIME STEP   1 IN FLOW TIME STEP  10 STRESS PERIOD   1
     5 TOTAL ITERATIONS
  MAXIMUM CONCENTRATION CHANGES FOR EACH ITERATION:
  MAX. CHANGE LAYER,ROW,COL MAX. CHANGE LAYER,ROW,COL MAX. CHANGE LAYER,ROW,COL MAX. CHANGE LAYER,ROW,COL MAX. CHANGE LAYER,ROW,COL
 ------------------------------------------------------------------------------------------------------------------------------------
<<<<<<< Updated upstream
   0.5347E-02 (  2,  2, 43)  0.1624E-03 (  3,  2, 43)  0.8167E-05 (  4,  2, 33)  0.5191E-06 (  3,  3, 31)  0.2849E-07 (  4,  3, 31)
=======
   0.6891E-02 (  2,  1, 38)  0.3148E-03 (  3,  2, 37)  0.1528E-04 (  4,  2, 37)  0.5784E-06 (  3,  2, 37)  0.2143E-07 (  4,  2, 37)
>>>>>>> Stashed changes

 OUTPUT CONTROL FOR STRESS PERIOD    1   TIME STEP  10
    SAVE HEAD FOR ALL LAYERS
    SAVE BUDGET
 UBDSV2 SAVING "   CONSTANT HEAD" ON UNIT  53 AT TIME STEP 10, STRESS PERIOD   1
 UBDSV1 SAVING "FLOW RIGHT FACE " ON UNIT  53 AT TIME STEP 10, STRESS PERIOD   1
 UBDSV1 SAVING "FLOW FRONT FACE " ON UNIT  53 AT TIME STEP 10, STRESS PERIOD   1
 UBDSV1 SAVING "FLOW LOWER FACE " ON UNIT  53 AT TIME STEP 10, STRESS PERIOD   1
 UBDSV1 SAVING "            DCDT" ON UNIT  53 AT TIME STEP 10, STRESS PERIOD   1

 HEAD WILL BE SAVED ON UNIT   51 AT END OF TIME STEP  10, STRESS PERIOD    1


                                          ================================================
                                                         FROM TIME =  0.10000     TO   0.11000    

 
 SOLVING FOR HEAD 
 FLOW MODEL IS TRANSIENT
 FLOW MODEL CONTAINS CONSTANT-HEAD CELLS


 MAXIMUM STEPSIZE DURING WHICH ANY PARTICLE CANNOT MOVE MORE THAN ONE CELL
<<<<<<< Updated upstream
 =  1.080    (WHEN MIN. R.F.=1)  AT K=   3, I=   2, J=  29

 MAXIMUM STEPSIZE WHICH MEETS STABILITY CRITERION OF THE ADVECTION TERM
 (FOR PURE FINITE-DIFFERENCE OPTION, MIXELM=0) 
 = 0.7491    (WHEN MIN. R.F.=1)  AT K=   3, I=   2, J=  28
=======
 =  1.232    (WHEN MIN. R.F.=1)  AT K=   3, I=   2, J=  31

 MAXIMUM STEPSIZE WHICH MEETS STABILITY CRITERION OF THE ADVECTION TERM
 (FOR PURE FINITE-DIFFERENCE OPTION, MIXELM=0) 
 = 0.8229    (WHEN MIN. R.F.=1)  AT K=   3, I=   2, J=  30
>>>>>>> Stashed changes


 TOTAL NUMBER OF POINT SOURCES/SINKS PRESENT IN THE FLOW MODEL =   240

 MAXIMUM STEPSIZE WHICH MEETS STABILITY CRITERION OF THE SINK & SOURCE TERM
 = 0.1000E+31(WHEN MIN. R.F.=1)  AT K=   0, I=   0, J=   0

 MAXIMUM STEPSIZE WHICH MEETS STABILITY CRITERION OF THE DISPERSION TERM
<<<<<<< Updated upstream
 = 0.4077E-01(WHEN MIN. R.F.=1)  AT K=   3, I=   2, J=  31
=======
 = 0.4425E-01(WHEN MIN. R.F.=1)  AT K=   3, I=   2, J=  30
>>>>>>> Stashed changes


     1 CALLS TO GCG PACKAGE FOR TRANSPORT TIME STEP   1 IN FLOW TIME STEP  11 STRESS PERIOD   1
     5 TOTAL ITERATIONS
  MAXIMUM CONCENTRATION CHANGES FOR EACH ITERATION:
  MAX. CHANGE LAYER,ROW,COL MAX. CHANGE LAYER,ROW,COL MAX. CHANGE LAYER,ROW,COL MAX. CHANGE LAYER,ROW,COL MAX. CHANGE LAYER,ROW,COL
 ------------------------------------------------------------------------------------------------------------------------------------
<<<<<<< Updated upstream
   0.5216E-02 (  2,  2, 43)  0.1608E-03 (  3,  2, 43)  0.8073E-05 (  4,  2, 33)  0.5122E-06 (  3,  3, 31)  0.2791E-07 (  4,  3, 31)
=======
   0.6797E-02 (  2,  1, 38)  0.3115E-03 (  3,  2, 37)  0.1481E-04 (  4,  2, 37)  0.5710E-06 (  3,  2, 37)  0.2097E-07 (  4,  2, 37)

 OUTPUT CONTROL FOR STRESS PERIOD    1   TIME STEP  11
    SAVE HEAD FOR ALL LAYERS
    SAVE BUDGET
 UBDSV2 SAVING "   CONSTANT HEAD" ON UNIT  53 AT TIME STEP 11, STRESS PERIOD   1
 UBDSV1 SAVING "FLOW RIGHT FACE " ON UNIT  53 AT TIME STEP 11, STRESS PERIOD   1
 UBDSV1 SAVING "FLOW FRONT FACE " ON UNIT  53 AT TIME STEP 11, STRESS PERIOD   1
 UBDSV1 SAVING "FLOW LOWER FACE " ON UNIT  53 AT TIME STEP 11, STRESS PERIOD   1
 UBDSV1 SAVING "            DCDT" ON UNIT  53 AT TIME STEP 11, STRESS PERIOD   1
>>>>>>> Stashed changes

 HEAD WILL BE SAVED ON UNIT   51 AT END OF TIME STEP  11, STRESS PERIOD    1


                                          ================================================
                                                         FROM TIME =  0.11000     TO   0.12000    

 
 SOLVING FOR HEAD 
 FLOW MODEL IS TRANSIENT
 FLOW MODEL CONTAINS CONSTANT-HEAD CELLS


 MAXIMUM STEPSIZE DURING WHICH ANY PARTICLE CANNOT MOVE MORE THAN ONE CELL
<<<<<<< Updated upstream
 =  1.080    (WHEN MIN. R.F.=1)  AT K=   3, I=   2, J=  29

 MAXIMUM STEPSIZE WHICH MEETS STABILITY CRITERION OF THE ADVECTION TERM
 (FOR PURE FINITE-DIFFERENCE OPTION, MIXELM=0) 
 = 0.7491    (WHEN MIN. R.F.=1)  AT K=   3, I=   2, J=  28
=======
 =  1.232    (WHEN MIN. R.F.=1)  AT K=   3, I=   2, J=  31

 MAXIMUM STEPSIZE WHICH MEETS STABILITY CRITERION OF THE ADVECTION TERM
 (FOR PURE FINITE-DIFFERENCE OPTION, MIXELM=0) 
 = 0.8230    (WHEN MIN. R.F.=1)  AT K=   3, I=   2, J=  30
>>>>>>> Stashed changes


 TOTAL NUMBER OF POINT SOURCES/SINKS PRESENT IN THE FLOW MODEL =   240

 MAXIMUM STEPSIZE WHICH MEETS STABILITY CRITERION OF THE SINK & SOURCE TERM
 = 0.1000E+31(WHEN MIN. R.F.=1)  AT K=   0, I=   0, J=   0

 MAXIMUM STEPSIZE WHICH MEETS STABILITY CRITERION OF THE DISPERSION TERM
<<<<<<< Updated upstream
 = 0.4077E-01(WHEN MIN. R.F.=1)  AT K=   3, I=   2, J=  31
=======
 = 0.4425E-01(WHEN MIN. R.F.=1)  AT K=   3, I=   2, J=  30
>>>>>>> Stashed changes


     1 CALLS TO GCG PACKAGE FOR TRANSPORT TIME STEP   1 IN FLOW TIME STEP  12 STRESS PERIOD   1
     5 TOTAL ITERATIONS
  MAXIMUM CONCENTRATION CHANGES FOR EACH ITERATION:
  MAX. CHANGE LAYER,ROW,COL MAX. CHANGE LAYER,ROW,COL MAX. CHANGE LAYER,ROW,COL MAX. CHANGE LAYER,ROW,COL MAX. CHANGE LAYER,ROW,COL
 ------------------------------------------------------------------------------------------------------------------------------------
<<<<<<< Updated upstream
   0.5091E-02 (  2,  2, 43)  0.1592E-03 (  3,  2, 43)  0.7980E-05 (  4,  2, 33)  0.5057E-06 (  3,  3, 31)  0.2738E-07 (  4,  3, 31)
=======
   0.6703E-02 (  2,  1, 38)  0.3083E-03 (  3,  2, 37)  0.1438E-04 (  4,  2, 37)  0.5645E-06 (  3,  2, 37)  0.2059E-07 (  4,  2, 37)

 OUTPUT CONTROL FOR STRESS PERIOD    1   TIME STEP  12
    SAVE HEAD FOR ALL LAYERS
    SAVE BUDGET
 UBDSV2 SAVING "   CONSTANT HEAD" ON UNIT  53 AT TIME STEP 12, STRESS PERIOD   1
 UBDSV1 SAVING "FLOW RIGHT FACE " ON UNIT  53 AT TIME STEP 12, STRESS PERIOD   1
 UBDSV1 SAVING "FLOW FRONT FACE " ON UNIT  53 AT TIME STEP 12, STRESS PERIOD   1
 UBDSV1 SAVING "FLOW LOWER FACE " ON UNIT  53 AT TIME STEP 12, STRESS PERIOD   1
 UBDSV1 SAVING "            DCDT" ON UNIT  53 AT TIME STEP 12, STRESS PERIOD   1
>>>>>>> Stashed changes

 HEAD WILL BE SAVED ON UNIT   51 AT END OF TIME STEP  12, STRESS PERIOD    1


                                          ================================================
                                                         FROM TIME =  0.12000     TO   0.13000    

 
 SOLVING FOR HEAD 
 FLOW MODEL IS TRANSIENT
 FLOW MODEL CONTAINS CONSTANT-HEAD CELLS


 MAXIMUM STEPSIZE DURING WHICH ANY PARTICLE CANNOT MOVE MORE THAN ONE CELL
<<<<<<< Updated upstream
 =  1.080    (WHEN MIN. R.F.=1)  AT K=   3, I=   2, J=  29

 MAXIMUM STEPSIZE WHICH MEETS STABILITY CRITERION OF THE ADVECTION TERM
 (FOR PURE FINITE-DIFFERENCE OPTION, MIXELM=0) 
 = 0.7491    (WHEN MIN. R.F.=1)  AT K=   3, I=   2, J=  28
=======
 =  1.232    (WHEN MIN. R.F.=1)  AT K=   3, I=   2, J=  31

 MAXIMUM STEPSIZE WHICH MEETS STABILITY CRITERION OF THE ADVECTION TERM
 (FOR PURE FINITE-DIFFERENCE OPTION, MIXELM=0) 
 = 0.8231    (WHEN MIN. R.F.=1)  AT K=   3, I=   2, J=  30
>>>>>>> Stashed changes


 TOTAL NUMBER OF POINT SOURCES/SINKS PRESENT IN THE FLOW MODEL =   240

 MAXIMUM STEPSIZE WHICH MEETS STABILITY CRITERION OF THE SINK & SOURCE TERM
 = 0.1000E+31(WHEN MIN. R.F.=1)  AT K=   0, I=   0, J=   0

 MAXIMUM STEPSIZE WHICH MEETS STABILITY CRITERION OF THE DISPERSION TERM
<<<<<<< Updated upstream
 = 0.4077E-01(WHEN MIN. R.F.=1)  AT K=   3, I=   2, J=  31
=======
 = 0.4425E-01(WHEN MIN. R.F.=1)  AT K=   3, I=   2, J=  30
>>>>>>> Stashed changes


     1 CALLS TO GCG PACKAGE FOR TRANSPORT TIME STEP   1 IN FLOW TIME STEP  13 STRESS PERIOD   1
     5 TOTAL ITERATIONS
  MAXIMUM CONCENTRATION CHANGES FOR EACH ITERATION:
  MAX. CHANGE LAYER,ROW,COL MAX. CHANGE LAYER,ROW,COL MAX. CHANGE LAYER,ROW,COL MAX. CHANGE LAYER,ROW,COL MAX. CHANGE LAYER,ROW,COL
 ------------------------------------------------------------------------------------------------------------------------------------
<<<<<<< Updated upstream
   0.4969E-02 (  2,  2, 43)  0.1575E-03 (  3,  2, 43)  0.7889E-05 (  4,  2, 33)  0.4994E-06 (  3,  3, 31)  0.2689E-07 (  4,  3, 31)
=======
   0.6607E-02 (  2,  1, 38)  0.3051E-03 (  3,  2, 37)  0.1398E-04 (  4,  2, 37)  0.5587E-06 (  3,  2, 37)  0.2027E-07 (  4,  2, 37)

 OUTPUT CONTROL FOR STRESS PERIOD    1   TIME STEP  13
    SAVE HEAD FOR ALL LAYERS
    SAVE BUDGET
 UBDSV2 SAVING "   CONSTANT HEAD" ON UNIT  53 AT TIME STEP 13, STRESS PERIOD   1
 UBDSV1 SAVING "FLOW RIGHT FACE " ON UNIT  53 AT TIME STEP 13, STRESS PERIOD   1
 UBDSV1 SAVING "FLOW FRONT FACE " ON UNIT  53 AT TIME STEP 13, STRESS PERIOD   1
 UBDSV1 SAVING "FLOW LOWER FACE " ON UNIT  53 AT TIME STEP 13, STRESS PERIOD   1
 UBDSV1 SAVING "            DCDT" ON UNIT  53 AT TIME STEP 13, STRESS PERIOD   1
>>>>>>> Stashed changes

 HEAD WILL BE SAVED ON UNIT   51 AT END OF TIME STEP  13, STRESS PERIOD    1


                                          ================================================
                                                         FROM TIME =  0.13000     TO   0.14000    

 
 SOLVING FOR HEAD 
 FLOW MODEL IS TRANSIENT
 FLOW MODEL CONTAINS CONSTANT-HEAD CELLS


 MAXIMUM STEPSIZE DURING WHICH ANY PARTICLE CANNOT MOVE MORE THAN ONE CELL
<<<<<<< Updated upstream
 =  1.080    (WHEN MIN. R.F.=1)  AT K=   3, I=   2, J=  29

 MAXIMUM STEPSIZE WHICH MEETS STABILITY CRITERION OF THE ADVECTION TERM
 (FOR PURE FINITE-DIFFERENCE OPTION, MIXELM=0) 
 = 0.7492    (WHEN MIN. R.F.=1)  AT K=   3, I=   2, J=  28
=======
 =  1.232    (WHEN MIN. R.F.=1)  AT K=   3, I=   2, J=  31

 MAXIMUM STEPSIZE WHICH MEETS STABILITY CRITERION OF THE ADVECTION TERM
 (FOR PURE FINITE-DIFFERENCE OPTION, MIXELM=0) 
 = 0.8233    (WHEN MIN. R.F.=1)  AT K=   3, I=   2, J=  30
>>>>>>> Stashed changes


 TOTAL NUMBER OF POINT SOURCES/SINKS PRESENT IN THE FLOW MODEL =   240

 MAXIMUM STEPSIZE WHICH MEETS STABILITY CRITERION OF THE SINK & SOURCE TERM
 = 0.1000E+31(WHEN MIN. R.F.=1)  AT K=   0, I=   0, J=   0

 MAXIMUM STEPSIZE WHICH MEETS STABILITY CRITERION OF THE DISPERSION TERM
<<<<<<< Updated upstream
 = 0.4077E-01(WHEN MIN. R.F.=1)  AT K=   3, I=   2, J=  31
=======
 = 0.4426E-01(WHEN MIN. R.F.=1)  AT K=   3, I=   2, J=  30
>>>>>>> Stashed changes


     1 CALLS TO GCG PACKAGE FOR TRANSPORT TIME STEP   1 IN FLOW TIME STEP  14 STRESS PERIOD   1
     5 TOTAL ITERATIONS
  MAXIMUM CONCENTRATION CHANGES FOR EACH ITERATION:
  MAX. CHANGE LAYER,ROW,COL MAX. CHANGE LAYER,ROW,COL MAX. CHANGE LAYER,ROW,COL MAX. CHANGE LAYER,ROW,COL MAX. CHANGE LAYER,ROW,COL
 ------------------------------------------------------------------------------------------------------------------------------------
<<<<<<< Updated upstream
   0.4851E-02 (  2,  2, 43)  0.1558E-03 (  3,  2, 43)  0.7800E-05 (  4,  2, 33)  0.4934E-06 (  3,  3, 31)  0.2642E-07 (  4,  3, 31)
=======
   0.6512E-02 (  2,  1, 38)  0.3019E-03 (  3,  2, 37)  0.1362E-04 (  4,  2, 37)  0.5536E-06 (  3,  2, 37)  0.2001E-07 (  4,  2, 37)
>>>>>>> Stashed changes

 OUTPUT CONTROL FOR STRESS PERIOD    1   TIME STEP  14
    SAVE HEAD FOR ALL LAYERS
    SAVE BUDGET
 UBDSV2 SAVING "   CONSTANT HEAD" ON UNIT  53 AT TIME STEP 14, STRESS PERIOD   1
 UBDSV1 SAVING "FLOW RIGHT FACE " ON UNIT  53 AT TIME STEP 14, STRESS PERIOD   1
 UBDSV1 SAVING "FLOW FRONT FACE " ON UNIT  53 AT TIME STEP 14, STRESS PERIOD   1
 UBDSV1 SAVING "FLOW LOWER FACE " ON UNIT  53 AT TIME STEP 14, STRESS PERIOD   1
 UBDSV1 SAVING "            DCDT" ON UNIT  53 AT TIME STEP 14, STRESS PERIOD   1

 HEAD WILL BE SAVED ON UNIT   51 AT END OF TIME STEP  14, STRESS PERIOD    1


                                          ================================================
                                                         FROM TIME =  0.14000     TO   0.15000    

 
 SOLVING FOR HEAD 
 FLOW MODEL IS TRANSIENT
 FLOW MODEL CONTAINS CONSTANT-HEAD CELLS


 MAXIMUM STEPSIZE DURING WHICH ANY PARTICLE CANNOT MOVE MORE THAN ONE CELL
<<<<<<< Updated upstream
 =  1.080    (WHEN MIN. R.F.=1)  AT K=   3, I=   2, J=  29

 MAXIMUM STEPSIZE WHICH MEETS STABILITY CRITERION OF THE ADVECTION TERM
 (FOR PURE FINITE-DIFFERENCE OPTION, MIXELM=0) 
 = 0.7492    (WHEN MIN. R.F.=1)  AT K=   3, I=   2, J=  28
=======
 =  1.233    (WHEN MIN. R.F.=1)  AT K=   3, I=   2, J=  31

 MAXIMUM STEPSIZE WHICH MEETS STABILITY CRITERION OF THE ADVECTION TERM
 (FOR PURE FINITE-DIFFERENCE OPTION, MIXELM=0) 
 = 0.8235    (WHEN MIN. R.F.=1)  AT K=   3, I=   2, J=  30
>>>>>>> Stashed changes


 TOTAL NUMBER OF POINT SOURCES/SINKS PRESENT IN THE FLOW MODEL =   240

 MAXIMUM STEPSIZE WHICH MEETS STABILITY CRITERION OF THE SINK & SOURCE TERM
 = 0.1000E+31(WHEN MIN. R.F.=1)  AT K=   0, I=   0, J=   0

 MAXIMUM STEPSIZE WHICH MEETS STABILITY CRITERION OF THE DISPERSION TERM
<<<<<<< Updated upstream
 = 0.4077E-01(WHEN MIN. R.F.=1)  AT K=   3, I=   2, J=  31
=======
 = 0.4426E-01(WHEN MIN. R.F.=1)  AT K=   3, I=   2, J=  30
>>>>>>> Stashed changes


     1 CALLS TO GCG PACKAGE FOR TRANSPORT TIME STEP   1 IN FLOW TIME STEP  15 STRESS PERIOD   1
     5 TOTAL ITERATIONS
  MAXIMUM CONCENTRATION CHANGES FOR EACH ITERATION:
  MAX. CHANGE LAYER,ROW,COL MAX. CHANGE LAYER,ROW,COL MAX. CHANGE LAYER,ROW,COL MAX. CHANGE LAYER,ROW,COL MAX. CHANGE LAYER,ROW,COL
 ------------------------------------------------------------------------------------------------------------------------------------
<<<<<<< Updated upstream
   0.4737E-02 (  2,  2, 43)  0.1541E-03 (  3,  2, 43)  0.7712E-05 (  4,  2, 33)  0.4875E-06 (  3,  3, 31)  0.2599E-07 (  4,  3, 31)
=======
   0.6416E-02 (  2,  1, 38)  0.2987E-03 (  3,  2, 37)  0.1328E-04 (  4,  2, 37)  0.5490E-06 (  3,  2, 37)  0.1979E-07 (  4,  2, 37)

 OUTPUT CONTROL FOR STRESS PERIOD    1   TIME STEP  15
    SAVE HEAD FOR ALL LAYERS
    SAVE BUDGET
 UBDSV2 SAVING "   CONSTANT HEAD" ON UNIT  53 AT TIME STEP 15, STRESS PERIOD   1
 UBDSV1 SAVING "FLOW RIGHT FACE " ON UNIT  53 AT TIME STEP 15, STRESS PERIOD   1
 UBDSV1 SAVING "FLOW FRONT FACE " ON UNIT  53 AT TIME STEP 15, STRESS PERIOD   1
 UBDSV1 SAVING "FLOW LOWER FACE " ON UNIT  53 AT TIME STEP 15, STRESS PERIOD   1
 UBDSV1 SAVING "            DCDT" ON UNIT  53 AT TIME STEP 15, STRESS PERIOD   1
>>>>>>> Stashed changes

 HEAD WILL BE SAVED ON UNIT   51 AT END OF TIME STEP  15, STRESS PERIOD    1


                                          ================================================
                                                         FROM TIME =  0.15000     TO   0.16000    

 
 SOLVING FOR HEAD 
 FLOW MODEL IS TRANSIENT
 FLOW MODEL CONTAINS CONSTANT-HEAD CELLS


 MAXIMUM STEPSIZE DURING WHICH ANY PARTICLE CANNOT MOVE MORE THAN ONE CELL
<<<<<<< Updated upstream
 =  1.080    (WHEN MIN. R.F.=1)  AT K=   3, I=   2, J=  29

 MAXIMUM STEPSIZE WHICH MEETS STABILITY CRITERION OF THE ADVECTION TERM
 (FOR PURE FINITE-DIFFERENCE OPTION, MIXELM=0) 
 = 0.7493    (WHEN MIN. R.F.=1)  AT K=   3, I=   2, J=  28
=======
 =  1.233    (WHEN MIN. R.F.=1)  AT K=   3, I=   2, J=  31

 MAXIMUM STEPSIZE WHICH MEETS STABILITY CRITERION OF THE ADVECTION TERM
 (FOR PURE FINITE-DIFFERENCE OPTION, MIXELM=0) 
 = 0.8237    (WHEN MIN. R.F.=1)  AT K=   3, I=   2, J=  30
>>>>>>> Stashed changes


 TOTAL NUMBER OF POINT SOURCES/SINKS PRESENT IN THE FLOW MODEL =   240

 MAXIMUM STEPSIZE WHICH MEETS STABILITY CRITERION OF THE SINK & SOURCE TERM
 = 0.1000E+31(WHEN MIN. R.F.=1)  AT K=   0, I=   0, J=   0

 MAXIMUM STEPSIZE WHICH MEETS STABILITY CRITERION OF THE DISPERSION TERM
<<<<<<< Updated upstream
 = 0.4077E-01(WHEN MIN. R.F.=1)  AT K=   3, I=   2, J=  31
=======
 = 0.4427E-01(WHEN MIN. R.F.=1)  AT K=   3, I=   2, J=  30
>>>>>>> Stashed changes


     1 CALLS TO GCG PACKAGE FOR TRANSPORT TIME STEP   1 IN FLOW TIME STEP  16 STRESS PERIOD   1
     5 TOTAL ITERATIONS
  MAXIMUM CONCENTRATION CHANGES FOR EACH ITERATION:
  MAX. CHANGE LAYER,ROW,COL MAX. CHANGE LAYER,ROW,COL MAX. CHANGE LAYER,ROW,COL MAX. CHANGE LAYER,ROW,COL MAX. CHANGE LAYER,ROW,COL
 ------------------------------------------------------------------------------------------------------------------------------------
<<<<<<< Updated upstream
   0.4632E-02 (  2,  1, 44)  0.1524E-03 (  3,  2, 43)  0.7626E-05 (  4,  2, 33)  0.4818E-06 (  3,  3, 31)  0.2557E-07 (  4,  3, 31)
=======
   0.6320E-02 (  2,  1, 38)  0.2956E-03 (  3,  2, 37)  0.1296E-04 (  4,  2, 37)  0.5450E-06 (  3,  2, 37)  0.1961E-07 (  4,  2, 37)

 OUTPUT CONTROL FOR STRESS PERIOD    1   TIME STEP  16
    SAVE HEAD FOR ALL LAYERS
    SAVE BUDGET
 UBDSV2 SAVING "   CONSTANT HEAD" ON UNIT  53 AT TIME STEP 16, STRESS PERIOD   1
 UBDSV1 SAVING "FLOW RIGHT FACE " ON UNIT  53 AT TIME STEP 16, STRESS PERIOD   1
 UBDSV1 SAVING "FLOW FRONT FACE " ON UNIT  53 AT TIME STEP 16, STRESS PERIOD   1
 UBDSV1 SAVING "FLOW LOWER FACE " ON UNIT  53 AT TIME STEP 16, STRESS PERIOD   1
 UBDSV1 SAVING "            DCDT" ON UNIT  53 AT TIME STEP 16, STRESS PERIOD   1
>>>>>>> Stashed changes

 HEAD WILL BE SAVED ON UNIT   51 AT END OF TIME STEP  16, STRESS PERIOD    1


                                          ================================================
                                                         FROM TIME =  0.16000     TO   0.17000    

 
 SOLVING FOR HEAD 
 FLOW MODEL IS TRANSIENT
 FLOW MODEL CONTAINS CONSTANT-HEAD CELLS


 MAXIMUM STEPSIZE DURING WHICH ANY PARTICLE CANNOT MOVE MORE THAN ONE CELL
<<<<<<< Updated upstream
 =  1.080    (WHEN MIN. R.F.=1)  AT K=   3, I=   2, J=  29

 MAXIMUM STEPSIZE WHICH MEETS STABILITY CRITERION OF THE ADVECTION TERM
 (FOR PURE FINITE-DIFFERENCE OPTION, MIXELM=0) 
 = 0.7495    (WHEN MIN. R.F.=1)  AT K=   3, I=   2, J=  28
=======
 =  1.233    (WHEN MIN. R.F.=1)  AT K=   3, I=   2, J=  31

 MAXIMUM STEPSIZE WHICH MEETS STABILITY CRITERION OF THE ADVECTION TERM
 (FOR PURE FINITE-DIFFERENCE OPTION, MIXELM=0) 
 = 0.8239    (WHEN MIN. R.F.=1)  AT K=   3, I=   2, J=  30
>>>>>>> Stashed changes


 TOTAL NUMBER OF POINT SOURCES/SINKS PRESENT IN THE FLOW MODEL =   240

 MAXIMUM STEPSIZE WHICH MEETS STABILITY CRITERION OF THE SINK & SOURCE TERM
 = 0.1000E+31(WHEN MIN. R.F.=1)  AT K=   0, I=   0, J=   0

 MAXIMUM STEPSIZE WHICH MEETS STABILITY CRITERION OF THE DISPERSION TERM
<<<<<<< Updated upstream
 = 0.4078E-01(WHEN MIN. R.F.=1)  AT K=   3, I=   2, J=  31
=======
 = 0.4427E-01(WHEN MIN. R.F.=1)  AT K=   3, I=   2, J=  30
>>>>>>> Stashed changes


     1 CALLS TO GCG PACKAGE FOR TRANSPORT TIME STEP   1 IN FLOW TIME STEP  17 STRESS PERIOD   1
     5 TOTAL ITERATIONS
  MAXIMUM CONCENTRATION CHANGES FOR EACH ITERATION:
  MAX. CHANGE LAYER,ROW,COL MAX. CHANGE LAYER,ROW,COL MAX. CHANGE LAYER,ROW,COL MAX. CHANGE LAYER,ROW,COL MAX. CHANGE LAYER,ROW,COL
 ------------------------------------------------------------------------------------------------------------------------------------
<<<<<<< Updated upstream
   0.4543E-02 (  2,  1, 44)  0.1507E-03 (  3,  2, 43)  0.7541E-05 (  4,  2, 33)  0.4762E-06 (  3,  3, 31)  0.2517E-07 (  4,  3, 31)
=======
   0.6224E-02 (  2,  1, 38)  0.2925E-03 (  3,  2, 37)  0.1267E-04 (  4,  2, 37)  0.5413E-06 (  3,  2, 37)  0.1947E-07 (  4,  2, 37)

 OUTPUT CONTROL FOR STRESS PERIOD    1   TIME STEP  17
    SAVE HEAD FOR ALL LAYERS
    SAVE BUDGET
 UBDSV2 SAVING "   CONSTANT HEAD" ON UNIT  53 AT TIME STEP 17, STRESS PERIOD   1
 UBDSV1 SAVING "FLOW RIGHT FACE " ON UNIT  53 AT TIME STEP 17, STRESS PERIOD   1
 UBDSV1 SAVING "FLOW FRONT FACE " ON UNIT  53 AT TIME STEP 17, STRESS PERIOD   1
 UBDSV1 SAVING "FLOW LOWER FACE " ON UNIT  53 AT TIME STEP 17, STRESS PERIOD   1
 UBDSV1 SAVING "            DCDT" ON UNIT  53 AT TIME STEP 17, STRESS PERIOD   1
>>>>>>> Stashed changes

 HEAD WILL BE SAVED ON UNIT   51 AT END OF TIME STEP  17, STRESS PERIOD    1


                                          ================================================
                                                         FROM TIME =  0.17000     TO   0.18000    

 
 SOLVING FOR HEAD 
 FLOW MODEL IS TRANSIENT
 FLOW MODEL CONTAINS CONSTANT-HEAD CELLS


 MAXIMUM STEPSIZE DURING WHICH ANY PARTICLE CANNOT MOVE MORE THAN ONE CELL
<<<<<<< Updated upstream
 =  1.080    (WHEN MIN. R.F.=1)  AT K=   3, I=   2, J=  29

 MAXIMUM STEPSIZE WHICH MEETS STABILITY CRITERION OF THE ADVECTION TERM
 (FOR PURE FINITE-DIFFERENCE OPTION, MIXELM=0) 
 = 0.7496    (WHEN MIN. R.F.=1)  AT K=   3, I=   2, J=  28
=======
 =  1.233    (WHEN MIN. R.F.=1)  AT K=   3, I=   2, J=  31

 MAXIMUM STEPSIZE WHICH MEETS STABILITY CRITERION OF THE ADVECTION TERM
 (FOR PURE FINITE-DIFFERENCE OPTION, MIXELM=0) 
 = 0.8241    (WHEN MIN. R.F.=1)  AT K=   3, I=   2, J=  30
>>>>>>> Stashed changes


 TOTAL NUMBER OF POINT SOURCES/SINKS PRESENT IN THE FLOW MODEL =   240

 MAXIMUM STEPSIZE WHICH MEETS STABILITY CRITERION OF THE SINK & SOURCE TERM
 = 0.1000E+31(WHEN MIN. R.F.=1)  AT K=   0, I=   0, J=   0

 MAXIMUM STEPSIZE WHICH MEETS STABILITY CRITERION OF THE DISPERSION TERM
<<<<<<< Updated upstream
 = 0.4078E-01(WHEN MIN. R.F.=1)  AT K=   3, I=   2, J=  31
=======
 = 0.4428E-01(WHEN MIN. R.F.=1)  AT K=   3, I=   2, J=  30
>>>>>>> Stashed changes


     1 CALLS TO GCG PACKAGE FOR TRANSPORT TIME STEP   1 IN FLOW TIME STEP  18 STRESS PERIOD   1
     5 TOTAL ITERATIONS
  MAXIMUM CONCENTRATION CHANGES FOR EACH ITERATION:
  MAX. CHANGE LAYER,ROW,COL MAX. CHANGE LAYER,ROW,COL MAX. CHANGE LAYER,ROW,COL MAX. CHANGE LAYER,ROW,COL MAX. CHANGE LAYER,ROW,COL
 ------------------------------------------------------------------------------------------------------------------------------------
<<<<<<< Updated upstream
   0.4457E-02 (  2,  1, 44)  0.1490E-03 (  3,  2, 43)  0.7458E-05 (  4,  2, 33)  0.4707E-06 (  3,  3, 31)  0.2478E-07 (  4,  3, 31)
=======
   0.6129E-02 (  2,  1, 38)  0.2894E-03 (  3,  2, 37)  0.1239E-04 (  4,  2, 37)  0.5379E-06 (  3,  2, 37)  0.1935E-07 (  4,  2, 37)
>>>>>>> Stashed changes

 OUTPUT CONTROL FOR STRESS PERIOD    1   TIME STEP  18
    SAVE HEAD FOR ALL LAYERS
    SAVE BUDGET
 UBDSV2 SAVING "   CONSTANT HEAD" ON UNIT  53 AT TIME STEP 18, STRESS PERIOD   1
 UBDSV1 SAVING "FLOW RIGHT FACE " ON UNIT  53 AT TIME STEP 18, STRESS PERIOD   1
 UBDSV1 SAVING "FLOW FRONT FACE " ON UNIT  53 AT TIME STEP 18, STRESS PERIOD   1
 UBDSV1 SAVING "FLOW LOWER FACE " ON UNIT  53 AT TIME STEP 18, STRESS PERIOD   1
 UBDSV1 SAVING "            DCDT" ON UNIT  53 AT TIME STEP 18, STRESS PERIOD   1

 HEAD WILL BE SAVED ON UNIT   51 AT END OF TIME STEP  18, STRESS PERIOD    1


                                          ================================================
                                                         FROM TIME =  0.18000     TO   0.19000    

 
 SOLVING FOR HEAD 
 FLOW MODEL IS TRANSIENT
 FLOW MODEL CONTAINS CONSTANT-HEAD CELLS


 MAXIMUM STEPSIZE DURING WHICH ANY PARTICLE CANNOT MOVE MORE THAN ONE CELL
<<<<<<< Updated upstream
 =  1.081    (WHEN MIN. R.F.=1)  AT K=   3, I=   2, J=  29

 MAXIMUM STEPSIZE WHICH MEETS STABILITY CRITERION OF THE ADVECTION TERM
 (FOR PURE FINITE-DIFFERENCE OPTION, MIXELM=0) 
 = 0.7497    (WHEN MIN. R.F.=1)  AT K=   3, I=   2, J=  28
=======
 =  1.234    (WHEN MIN. R.F.=1)  AT K=   3, I=   2, J=  31

 MAXIMUM STEPSIZE WHICH MEETS STABILITY CRITERION OF THE ADVECTION TERM
 (FOR PURE FINITE-DIFFERENCE OPTION, MIXELM=0) 
 = 0.8244    (WHEN MIN. R.F.=1)  AT K=   3, I=   2, J=  30
>>>>>>> Stashed changes


 TOTAL NUMBER OF POINT SOURCES/SINKS PRESENT IN THE FLOW MODEL =   240

 MAXIMUM STEPSIZE WHICH MEETS STABILITY CRITERION OF THE SINK & SOURCE TERM
 = 0.1000E+31(WHEN MIN. R.F.=1)  AT K=   0, I=   0, J=   0

 MAXIMUM STEPSIZE WHICH MEETS STABILITY CRITERION OF THE DISPERSION TERM
<<<<<<< Updated upstream
 = 0.4079E-01(WHEN MIN. R.F.=1)  AT K=   3, I=   2, J=  31
=======
 = 0.4429E-01(WHEN MIN. R.F.=1)  AT K=   3, I=   2, J=  30
>>>>>>> Stashed changes


     1 CALLS TO GCG PACKAGE FOR TRANSPORT TIME STEP   1 IN FLOW TIME STEP  19 STRESS PERIOD   1
     5 TOTAL ITERATIONS
  MAXIMUM CONCENTRATION CHANGES FOR EACH ITERATION:
  MAX. CHANGE LAYER,ROW,COL MAX. CHANGE LAYER,ROW,COL MAX. CHANGE LAYER,ROW,COL MAX. CHANGE LAYER,ROW,COL MAX. CHANGE LAYER,ROW,COL
 ------------------------------------------------------------------------------------------------------------------------------------
<<<<<<< Updated upstream
   0.4372E-02 (  2,  1, 44)  0.1480E-03 (  3,  2, 34)  0.7377E-05 (  4,  2, 33)  0.4652E-06 (  3,  3, 31)  0.2441E-07 (  4,  3, 31)
=======
   0.6035E-02 (  2,  1, 38)  0.2863E-03 (  3,  2, 37)  0.1213E-04 (  4,  2, 37)  0.5348E-06 (  3,  2, 37)  0.1926E-07 (  4,  2, 37)

 OUTPUT CONTROL FOR STRESS PERIOD    1   TIME STEP  19
    SAVE HEAD FOR ALL LAYERS
    SAVE BUDGET
 UBDSV2 SAVING "   CONSTANT HEAD" ON UNIT  53 AT TIME STEP 19, STRESS PERIOD   1
 UBDSV1 SAVING "FLOW RIGHT FACE " ON UNIT  53 AT TIME STEP 19, STRESS PERIOD   1
 UBDSV1 SAVING "FLOW FRONT FACE " ON UNIT  53 AT TIME STEP 19, STRESS PERIOD   1
 UBDSV1 SAVING "FLOW LOWER FACE " ON UNIT  53 AT TIME STEP 19, STRESS PERIOD   1
 UBDSV1 SAVING "            DCDT" ON UNIT  53 AT TIME STEP 19, STRESS PERIOD   1
>>>>>>> Stashed changes

 HEAD WILL BE SAVED ON UNIT   51 AT END OF TIME STEP  19, STRESS PERIOD    1


                                          ================================================
                                                         FROM TIME =  0.19000     TO   0.20000    

 
 SOLVING FOR HEAD 
 FLOW MODEL IS TRANSIENT
 FLOW MODEL CONTAINS CONSTANT-HEAD CELLS


 MAXIMUM STEPSIZE DURING WHICH ANY PARTICLE CANNOT MOVE MORE THAN ONE CELL
<<<<<<< Updated upstream
 =  1.081    (WHEN MIN. R.F.=1)  AT K=   3, I=   2, J=  29

 MAXIMUM STEPSIZE WHICH MEETS STABILITY CRITERION OF THE ADVECTION TERM
 (FOR PURE FINITE-DIFFERENCE OPTION, MIXELM=0) 
 = 0.7499    (WHEN MIN. R.F.=1)  AT K=   3, I=   2, J=  28
=======
 =  1.234    (WHEN MIN. R.F.=1)  AT K=   3, I=   2, J=  31

 MAXIMUM STEPSIZE WHICH MEETS STABILITY CRITERION OF THE ADVECTION TERM
 (FOR PURE FINITE-DIFFERENCE OPTION, MIXELM=0) 
 = 0.8247    (WHEN MIN. R.F.=1)  AT K=   3, I=   2, J=  30
>>>>>>> Stashed changes


 TOTAL NUMBER OF POINT SOURCES/SINKS PRESENT IN THE FLOW MODEL =   240

 MAXIMUM STEPSIZE WHICH MEETS STABILITY CRITERION OF THE SINK & SOURCE TERM
 = 0.1000E+31(WHEN MIN. R.F.=1)  AT K=   0, I=   0, J=   0

 MAXIMUM STEPSIZE WHICH MEETS STABILITY CRITERION OF THE DISPERSION TERM
<<<<<<< Updated upstream
 = 0.4079E-01(WHEN MIN. R.F.=1)  AT K=   3, I=   2, J=  31
=======
 = 0.4430E-01(WHEN MIN. R.F.=1)  AT K=   3, I=   2, J=  30
>>>>>>> Stashed changes


     1 CALLS TO GCG PACKAGE FOR TRANSPORT TIME STEP   1 IN FLOW TIME STEP  20 STRESS PERIOD   1
     5 TOTAL ITERATIONS
  MAXIMUM CONCENTRATION CHANGES FOR EACH ITERATION:
  MAX. CHANGE LAYER,ROW,COL MAX. CHANGE LAYER,ROW,COL MAX. CHANGE LAYER,ROW,COL MAX. CHANGE LAYER,ROW,COL MAX. CHANGE LAYER,ROW,COL
 ------------------------------------------------------------------------------------------------------------------------------------
<<<<<<< Updated upstream
   0.4290E-02 (  2,  1, 45)  0.1471E-03 (  3,  2, 34)  0.7297E-05 (  4,  2, 33)  0.4598E-06 (  3,  3, 31)  0.2405E-07 (  4,  3, 31)
=======
   0.5942E-02 (  2,  1, 39)  0.2832E-03 (  3,  2, 37)  0.1188E-04 (  4,  2, 37)  0.5318E-06 (  3,  2, 37)  0.1918E-07 (  4,  2, 37)

 OUTPUT CONTROL FOR STRESS PERIOD    1   TIME STEP  20
    SAVE HEAD FOR ALL LAYERS
    SAVE BUDGET
 UBDSV2 SAVING "   CONSTANT HEAD" ON UNIT  53 AT TIME STEP 20, STRESS PERIOD   1
 UBDSV1 SAVING "FLOW RIGHT FACE " ON UNIT  53 AT TIME STEP 20, STRESS PERIOD   1
 UBDSV1 SAVING "FLOW FRONT FACE " ON UNIT  53 AT TIME STEP 20, STRESS PERIOD   1
 UBDSV1 SAVING "FLOW LOWER FACE " ON UNIT  53 AT TIME STEP 20, STRESS PERIOD   1
 UBDSV1 SAVING "            DCDT" ON UNIT  53 AT TIME STEP 20, STRESS PERIOD   1
>>>>>>> Stashed changes

 HEAD WILL BE SAVED ON UNIT   51 AT END OF TIME STEP  20, STRESS PERIOD    1


                                          ================================================
                                                         FROM TIME =  0.20000     TO   0.21000    

 
 SOLVING FOR HEAD 
 FLOW MODEL IS TRANSIENT
 FLOW MODEL CONTAINS CONSTANT-HEAD CELLS


 MAXIMUM STEPSIZE DURING WHICH ANY PARTICLE CANNOT MOVE MORE THAN ONE CELL
<<<<<<< Updated upstream
 =  1.081    (WHEN MIN. R.F.=1)  AT K=   3, I=   2, J=  29

 MAXIMUM STEPSIZE WHICH MEETS STABILITY CRITERION OF THE ADVECTION TERM
 (FOR PURE FINITE-DIFFERENCE OPTION, MIXELM=0) 
 = 0.7501    (WHEN MIN. R.F.=1)  AT K=   3, I=   2, J=  28
=======
 =  1.235    (WHEN MIN. R.F.=1)  AT K=   3, I=   2, J=  31

 MAXIMUM STEPSIZE WHICH MEETS STABILITY CRITERION OF THE ADVECTION TERM
 (FOR PURE FINITE-DIFFERENCE OPTION, MIXELM=0) 
 = 0.8249    (WHEN MIN. R.F.=1)  AT K=   3, I=   2, J=  30
>>>>>>> Stashed changes


 TOTAL NUMBER OF POINT SOURCES/SINKS PRESENT IN THE FLOW MODEL =   240

 MAXIMUM STEPSIZE WHICH MEETS STABILITY CRITERION OF THE SINK & SOURCE TERM
 = 0.1000E+31(WHEN MIN. R.F.=1)  AT K=   0, I=   0, J=   0

 MAXIMUM STEPSIZE WHICH MEETS STABILITY CRITERION OF THE DISPERSION TERM
<<<<<<< Updated upstream
 = 0.4080E-01(WHEN MIN. R.F.=1)  AT K=   3, I=   2, J=  31
=======
 = 0.4430E-01(WHEN MIN. R.F.=1)  AT K=   3, I=   2, J=  30
>>>>>>> Stashed changes


     1 CALLS TO GCG PACKAGE FOR TRANSPORT TIME STEP   1 IN FLOW TIME STEP  21 STRESS PERIOD   1
     5 TOTAL ITERATIONS
  MAXIMUM CONCENTRATION CHANGES FOR EACH ITERATION:
  MAX. CHANGE LAYER,ROW,COL MAX. CHANGE LAYER,ROW,COL MAX. CHANGE LAYER,ROW,COL MAX. CHANGE LAYER,ROW,COL MAX. CHANGE LAYER,ROW,COL
 ------------------------------------------------------------------------------------------------------------------------------------
<<<<<<< Updated upstream
   0.4215E-02 (  2,  1, 45)  0.1462E-03 (  3,  2, 34)  0.7219E-05 (  4,  2, 33)  0.4545E-06 (  3,  3, 31)  0.2369E-07 (  4,  3, 31)
=======
   0.5856E-02 (  2,  1, 39)  0.2802E-03 (  3,  2, 37)  0.1165E-04 (  4,  2, 37)  0.5290E-06 (  3,  2, 37)  0.1912E-07 (  4,  2, 37)

 OUTPUT CONTROL FOR STRESS PERIOD    1   TIME STEP  21
    SAVE HEAD FOR ALL LAYERS
    SAVE BUDGET
 UBDSV2 SAVING "   CONSTANT HEAD" ON UNIT  53 AT TIME STEP 21, STRESS PERIOD   1
 UBDSV1 SAVING "FLOW RIGHT FACE " ON UNIT  53 AT TIME STEP 21, STRESS PERIOD   1
 UBDSV1 SAVING "FLOW FRONT FACE " ON UNIT  53 AT TIME STEP 21, STRESS PERIOD   1
 UBDSV1 SAVING "FLOW LOWER FACE " ON UNIT  53 AT TIME STEP 21, STRESS PERIOD   1
 UBDSV1 SAVING "            DCDT" ON UNIT  53 AT TIME STEP 21, STRESS PERIOD   1
>>>>>>> Stashed changes

 HEAD WILL BE SAVED ON UNIT   51 AT END OF TIME STEP  21, STRESS PERIOD    1


                                          ================================================
                                                         FROM TIME =  0.21000     TO   0.22000    

 
 SOLVING FOR HEAD 
 FLOW MODEL IS TRANSIENT
 FLOW MODEL CONTAINS CONSTANT-HEAD CELLS


 MAXIMUM STEPSIZE DURING WHICH ANY PARTICLE CANNOT MOVE MORE THAN ONE CELL
<<<<<<< Updated upstream
 =  1.081    (WHEN MIN. R.F.=1)  AT K=   3, I=   2, J=  29

 MAXIMUM STEPSIZE WHICH MEETS STABILITY CRITERION OF THE ADVECTION TERM
 (FOR PURE FINITE-DIFFERENCE OPTION, MIXELM=0) 
 = 0.7503    (WHEN MIN. R.F.=1)  AT K=   3, I=   2, J=  28
=======
 =  1.235    (WHEN MIN. R.F.=1)  AT K=   3, I=   2, J=  31

 MAXIMUM STEPSIZE WHICH MEETS STABILITY CRITERION OF THE ADVECTION TERM
 (FOR PURE FINITE-DIFFERENCE OPTION, MIXELM=0) 
 = 0.8252    (WHEN MIN. R.F.=1)  AT K=   3, I=   2, J=  30
>>>>>>> Stashed changes


 TOTAL NUMBER OF POINT SOURCES/SINKS PRESENT IN THE FLOW MODEL =   240

 MAXIMUM STEPSIZE WHICH MEETS STABILITY CRITERION OF THE SINK & SOURCE TERM
 = 0.1000E+31(WHEN MIN. R.F.=1)  AT K=   0, I=   0, J=   0

 MAXIMUM STEPSIZE WHICH MEETS STABILITY CRITERION OF THE DISPERSION TERM
<<<<<<< Updated upstream
 = 0.4081E-01(WHEN MIN. R.F.=1)  AT K=   3, I=   2, J=  31
=======
 = 0.4432E-01(WHEN MIN. R.F.=1)  AT K=   3, I=   2, J=  30
>>>>>>> Stashed changes


     1 CALLS TO GCG PACKAGE FOR TRANSPORT TIME STEP   1 IN FLOW TIME STEP  22 STRESS PERIOD   1
     5 TOTAL ITERATIONS
  MAXIMUM CONCENTRATION CHANGES FOR EACH ITERATION:
  MAX. CHANGE LAYER,ROW,COL MAX. CHANGE LAYER,ROW,COL MAX. CHANGE LAYER,ROW,COL MAX. CHANGE LAYER,ROW,COL MAX. CHANGE LAYER,ROW,COL
 ------------------------------------------------------------------------------------------------------------------------------------
<<<<<<< Updated upstream
   0.4142E-02 (  2,  1, 45)  0.1452E-03 (  3,  2, 34)  0.7142E-05 (  4,  2, 33)  0.4492E-06 (  3,  3, 31)  0.2335E-07 (  4,  3, 31)
=======
   0.5770E-02 (  2,  1, 39)  0.2772E-03 (  3,  2, 37)  0.1142E-04 (  4,  2, 37)  0.5263E-06 (  3,  2, 37)  0.1908E-07 (  4,  2, 37)
>>>>>>> Stashed changes

 OUTPUT CONTROL FOR STRESS PERIOD    1   TIME STEP  22
    SAVE HEAD FOR ALL LAYERS
    SAVE BUDGET
 UBDSV2 SAVING "   CONSTANT HEAD" ON UNIT  53 AT TIME STEP 22, STRESS PERIOD   1
 UBDSV1 SAVING "FLOW RIGHT FACE " ON UNIT  53 AT TIME STEP 22, STRESS PERIOD   1
 UBDSV1 SAVING "FLOW FRONT FACE " ON UNIT  53 AT TIME STEP 22, STRESS PERIOD   1
 UBDSV1 SAVING "FLOW LOWER FACE " ON UNIT  53 AT TIME STEP 22, STRESS PERIOD   1
 UBDSV1 SAVING "            DCDT" ON UNIT  53 AT TIME STEP 22, STRESS PERIOD   1

 HEAD WILL BE SAVED ON UNIT   51 AT END OF TIME STEP  22, STRESS PERIOD    1


                                          ================================================
                                                         FROM TIME =  0.22000     TO   0.23000    

 
 SOLVING FOR HEAD 
 FLOW MODEL IS TRANSIENT
 FLOW MODEL CONTAINS CONSTANT-HEAD CELLS


 MAXIMUM STEPSIZE DURING WHICH ANY PARTICLE CANNOT MOVE MORE THAN ONE CELL
<<<<<<< Updated upstream
 =  1.082    (WHEN MIN. R.F.=1)  AT K=   3, I=   2, J=  29

 MAXIMUM STEPSIZE WHICH MEETS STABILITY CRITERION OF THE ADVECTION TERM
 (FOR PURE FINITE-DIFFERENCE OPTION, MIXELM=0) 
 = 0.7504    (WHEN MIN. R.F.=1)  AT K=   3, I=   2, J=  28
=======
 =  1.235    (WHEN MIN. R.F.=1)  AT K=   3, I=   2, J=  31

 MAXIMUM STEPSIZE WHICH MEETS STABILITY CRITERION OF THE ADVECTION TERM
 (FOR PURE FINITE-DIFFERENCE OPTION, MIXELM=0) 
 = 0.8255    (WHEN MIN. R.F.=1)  AT K=   3, I=   2, J=  30
>>>>>>> Stashed changes


 TOTAL NUMBER OF POINT SOURCES/SINKS PRESENT IN THE FLOW MODEL =   240

 MAXIMUM STEPSIZE WHICH MEETS STABILITY CRITERION OF THE SINK & SOURCE TERM
 = 0.1000E+31(WHEN MIN. R.F.=1)  AT K=   0, I=   0, J=   0

 MAXIMUM STEPSIZE WHICH MEETS STABILITY CRITERION OF THE DISPERSION TERM
<<<<<<< Updated upstream
 = 0.4082E-01(WHEN MIN. R.F.=1)  AT K=   3, I=   2, J=  31
=======
 = 0.4433E-01(WHEN MIN. R.F.=1)  AT K=   3, I=   2, J=  30
>>>>>>> Stashed changes


     1 CALLS TO GCG PACKAGE FOR TRANSPORT TIME STEP   1 IN FLOW TIME STEP  23 STRESS PERIOD   1
     5 TOTAL ITERATIONS
  MAXIMUM CONCENTRATION CHANGES FOR EACH ITERATION:
  MAX. CHANGE LAYER,ROW,COL MAX. CHANGE LAYER,ROW,COL MAX. CHANGE LAYER,ROW,COL MAX. CHANGE LAYER,ROW,COL MAX. CHANGE LAYER,ROW,COL
 ------------------------------------------------------------------------------------------------------------------------------------
<<<<<<< Updated upstream
   0.4070E-02 (  2,  1, 45)  0.1443E-03 (  3,  2, 34)  0.7067E-05 (  4,  2, 33)  0.4440E-06 (  3,  3, 31)  0.2301E-07 (  4,  3, 31)
=======
   0.5684E-02 (  2,  1, 39)  0.2743E-03 (  3,  2, 37)  0.1121E-04 (  4,  2, 37)  0.5237E-06 (  3,  2, 37)  0.1904E-07 (  4,  2, 37)

 OUTPUT CONTROL FOR STRESS PERIOD    1   TIME STEP  23
    SAVE HEAD FOR ALL LAYERS
    SAVE BUDGET
 UBDSV2 SAVING "   CONSTANT HEAD" ON UNIT  53 AT TIME STEP 23, STRESS PERIOD   1
 UBDSV1 SAVING "FLOW RIGHT FACE " ON UNIT  53 AT TIME STEP 23, STRESS PERIOD   1
 UBDSV1 SAVING "FLOW FRONT FACE " ON UNIT  53 AT TIME STEP 23, STRESS PERIOD   1
 UBDSV1 SAVING "FLOW LOWER FACE " ON UNIT  53 AT TIME STEP 23, STRESS PERIOD   1
 UBDSV1 SAVING "            DCDT" ON UNIT  53 AT TIME STEP 23, STRESS PERIOD   1
>>>>>>> Stashed changes

 HEAD WILL BE SAVED ON UNIT   51 AT END OF TIME STEP  23, STRESS PERIOD    1


                                          ================================================
                                                         FROM TIME =  0.23000     TO   0.24000    

 
 SOLVING FOR HEAD 
 FLOW MODEL IS TRANSIENT
 FLOW MODEL CONTAINS CONSTANT-HEAD CELLS


 MAXIMUM STEPSIZE DURING WHICH ANY PARTICLE CANNOT MOVE MORE THAN ONE CELL
<<<<<<< Updated upstream
 =  1.082    (WHEN MIN. R.F.=1)  AT K=   3, I=   2, J=  29

 MAXIMUM STEPSIZE WHICH MEETS STABILITY CRITERION OF THE ADVECTION TERM
 (FOR PURE FINITE-DIFFERENCE OPTION, MIXELM=0) 
 = 0.7507    (WHEN MIN. R.F.=1)  AT K=   3, I=   2, J=  28
=======
 =  1.236    (WHEN MIN. R.F.=1)  AT K=   3, I=   2, J=  31

 MAXIMUM STEPSIZE WHICH MEETS STABILITY CRITERION OF THE ADVECTION TERM
 (FOR PURE FINITE-DIFFERENCE OPTION, MIXELM=0) 
 = 0.8258    (WHEN MIN. R.F.=1)  AT K=   3, I=   2, J=  30
>>>>>>> Stashed changes


 TOTAL NUMBER OF POINT SOURCES/SINKS PRESENT IN THE FLOW MODEL =   240

 MAXIMUM STEPSIZE WHICH MEETS STABILITY CRITERION OF THE SINK & SOURCE TERM
 = 0.1000E+31(WHEN MIN. R.F.=1)  AT K=   0, I=   0, J=   0

 MAXIMUM STEPSIZE WHICH MEETS STABILITY CRITERION OF THE DISPERSION TERM
<<<<<<< Updated upstream
 = 0.4083E-01(WHEN MIN. R.F.=1)  AT K=   3, I=   2, J=  31
=======
 = 0.4434E-01(WHEN MIN. R.F.=1)  AT K=   3, I=   2, J=  30
>>>>>>> Stashed changes


     1 CALLS TO GCG PACKAGE FOR TRANSPORT TIME STEP   1 IN FLOW TIME STEP  24 STRESS PERIOD   1
     5 TOTAL ITERATIONS
  MAXIMUM CONCENTRATION CHANGES FOR EACH ITERATION:
  MAX. CHANGE LAYER,ROW,COL MAX. CHANGE LAYER,ROW,COL MAX. CHANGE LAYER,ROW,COL MAX. CHANGE LAYER,ROW,COL MAX. CHANGE LAYER,ROW,COL
 ------------------------------------------------------------------------------------------------------------------------------------
<<<<<<< Updated upstream
   0.4000E-02 (  2,  1, 45)  0.1433E-03 (  3,  2, 34)  0.6993E-05 (  4,  2, 33)  0.4389E-06 (  3,  3, 31)  0.2267E-07 (  4,  3, 31)
=======
   0.5599E-02 (  2,  1, 39)  0.2713E-03 (  3,  2, 37)  0.1101E-04 (  4,  2, 37)  0.5212E-06 (  3,  2, 37)  0.1901E-07 (  4,  2, 37)

 OUTPUT CONTROL FOR STRESS PERIOD    1   TIME STEP  24
    SAVE HEAD FOR ALL LAYERS
    SAVE BUDGET
 UBDSV2 SAVING "   CONSTANT HEAD" ON UNIT  53 AT TIME STEP 24, STRESS PERIOD   1
 UBDSV1 SAVING "FLOW RIGHT FACE " ON UNIT  53 AT TIME STEP 24, STRESS PERIOD   1
 UBDSV1 SAVING "FLOW FRONT FACE " ON UNIT  53 AT TIME STEP 24, STRESS PERIOD   1
 UBDSV1 SAVING "FLOW LOWER FACE " ON UNIT  53 AT TIME STEP 24, STRESS PERIOD   1
 UBDSV1 SAVING "            DCDT" ON UNIT  53 AT TIME STEP 24, STRESS PERIOD   1
>>>>>>> Stashed changes

 HEAD WILL BE SAVED ON UNIT   51 AT END OF TIME STEP  24, STRESS PERIOD    1


                                          ================================================
                                                         FROM TIME =  0.24000     TO   0.25000    

 
 SOLVING FOR HEAD 
 FLOW MODEL IS TRANSIENT
 FLOW MODEL CONTAINS CONSTANT-HEAD CELLS


 MAXIMUM STEPSIZE DURING WHICH ANY PARTICLE CANNOT MOVE MORE THAN ONE CELL
<<<<<<< Updated upstream
 =  1.082    (WHEN MIN. R.F.=1)  AT K=   3, I=   2, J=  29

 MAXIMUM STEPSIZE WHICH MEETS STABILITY CRITERION OF THE ADVECTION TERM
 (FOR PURE FINITE-DIFFERENCE OPTION, MIXELM=0) 
 = 0.7509    (WHEN MIN. R.F.=1)  AT K=   3, I=   2, J=  28
=======
 =  1.236    (WHEN MIN. R.F.=1)  AT K=   3, I=   2, J=  31

 MAXIMUM STEPSIZE WHICH MEETS STABILITY CRITERION OF THE ADVECTION TERM
 (FOR PURE FINITE-DIFFERENCE OPTION, MIXELM=0) 
 = 0.8261    (WHEN MIN. R.F.=1)  AT K=   3, I=   2, J=  30
>>>>>>> Stashed changes


 TOTAL NUMBER OF POINT SOURCES/SINKS PRESENT IN THE FLOW MODEL =   240

 MAXIMUM STEPSIZE WHICH MEETS STABILITY CRITERION OF THE SINK & SOURCE TERM
 = 0.1000E+31(WHEN MIN. R.F.=1)  AT K=   0, I=   0, J=   0

 MAXIMUM STEPSIZE WHICH MEETS STABILITY CRITERION OF THE DISPERSION TERM
<<<<<<< Updated upstream
 = 0.4084E-01(WHEN MIN. R.F.=1)  AT K=   3, I=   2, J=  31
=======
 = 0.4435E-01(WHEN MIN. R.F.=1)  AT K=   3, I=   2, J=  30
>>>>>>> Stashed changes


     1 CALLS TO GCG PACKAGE FOR TRANSPORT TIME STEP   1 IN FLOW TIME STEP  25 STRESS PERIOD   1
     5 TOTAL ITERATIONS
  MAXIMUM CONCENTRATION CHANGES FOR EACH ITERATION:
  MAX. CHANGE LAYER,ROW,COL MAX. CHANGE LAYER,ROW,COL MAX. CHANGE LAYER,ROW,COL MAX. CHANGE LAYER,ROW,COL MAX. CHANGE LAYER,ROW,COL
 ------------------------------------------------------------------------------------------------------------------------------------
<<<<<<< Updated upstream
   0.3931E-02 (  2,  1, 45)  0.1423E-03 (  3,  2, 34)  0.6921E-05 (  4,  2, 33)  0.4338E-06 (  3,  3, 31)  0.2235E-07 (  4,  3, 31)
=======
   0.5516E-02 (  2,  1, 39)  0.2684E-03 (  3,  2, 37)  0.1081E-04 (  4,  2, 37)  0.5187E-06 (  3,  2, 37)  0.1899E-07 (  4,  2, 37)

 OUTPUT CONTROL FOR STRESS PERIOD    1   TIME STEP  25
    SAVE HEAD FOR ALL LAYERS
    SAVE BUDGET
 UBDSV2 SAVING "   CONSTANT HEAD" ON UNIT  53 AT TIME STEP 25, STRESS PERIOD   1
 UBDSV1 SAVING "FLOW RIGHT FACE " ON UNIT  53 AT TIME STEP 25, STRESS PERIOD   1
 UBDSV1 SAVING "FLOW FRONT FACE " ON UNIT  53 AT TIME STEP 25, STRESS PERIOD   1
 UBDSV1 SAVING "FLOW LOWER FACE " ON UNIT  53 AT TIME STEP 25, STRESS PERIOD   1
 UBDSV1 SAVING "            DCDT" ON UNIT  53 AT TIME STEP 25, STRESS PERIOD   1
>>>>>>> Stashed changes

 HEAD WILL BE SAVED ON UNIT   51 AT END OF TIME STEP  25, STRESS PERIOD    1


                                          ================================================
                                                         FROM TIME =  0.25000     TO   0.26000    

 
 SOLVING FOR HEAD 
 FLOW MODEL IS TRANSIENT
 FLOW MODEL CONTAINS CONSTANT-HEAD CELLS


 MAXIMUM STEPSIZE DURING WHICH ANY PARTICLE CANNOT MOVE MORE THAN ONE CELL
<<<<<<< Updated upstream
 =  1.082    (WHEN MIN. R.F.=1)  AT K=   3, I=   2, J=  29

 MAXIMUM STEPSIZE WHICH MEETS STABILITY CRITERION OF THE ADVECTION TERM
 (FOR PURE FINITE-DIFFERENCE OPTION, MIXELM=0) 
 = 0.7511    (WHEN MIN. R.F.=1)  AT K=   3, I=   2, J=  28
=======
 =  1.237    (WHEN MIN. R.F.=1)  AT K=   3, I=   2, J=  31

 MAXIMUM STEPSIZE WHICH MEETS STABILITY CRITERION OF THE ADVECTION TERM
 (FOR PURE FINITE-DIFFERENCE OPTION, MIXELM=0) 
 = 0.8265    (WHEN MIN. R.F.=1)  AT K=   3, I=   2, J=  30
>>>>>>> Stashed changes


 TOTAL NUMBER OF POINT SOURCES/SINKS PRESENT IN THE FLOW MODEL =   240

 MAXIMUM STEPSIZE WHICH MEETS STABILITY CRITERION OF THE SINK & SOURCE TERM
 = 0.1000E+31(WHEN MIN. R.F.=1)  AT K=   0, I=   0, J=   0

 MAXIMUM STEPSIZE WHICH MEETS STABILITY CRITERION OF THE DISPERSION TERM
<<<<<<< Updated upstream
 = 0.4085E-01(WHEN MIN. R.F.=1)  AT K=   3, I=   2, J=  31
=======
 = 0.4436E-01(WHEN MIN. R.F.=1)  AT K=   3, I=   2, J=  30
>>>>>>> Stashed changes


     1 CALLS TO GCG PACKAGE FOR TRANSPORT TIME STEP   1 IN FLOW TIME STEP  26 STRESS PERIOD   1
     5 TOTAL ITERATIONS
  MAXIMUM CONCENTRATION CHANGES FOR EACH ITERATION:
  MAX. CHANGE LAYER,ROW,COL MAX. CHANGE LAYER,ROW,COL MAX. CHANGE LAYER,ROW,COL MAX. CHANGE LAYER,ROW,COL MAX. CHANGE LAYER,ROW,COL
 ------------------------------------------------------------------------------------------------------------------------------------
<<<<<<< Updated upstream
   0.3863E-02 (  2,  1, 45)  0.1413E-03 (  3,  2, 34)  0.6850E-05 (  4,  2, 33)  0.4287E-06 (  3,  3, 31)  0.2203E-07 (  4,  3, 31)
=======
   0.5433E-02 (  2,  1, 39)  0.2656E-03 (  3,  2, 37)  0.1063E-04 (  4,  2, 37)  0.5162E-06 (  3,  2, 37)  0.1897E-07 (  4,  2, 37)
>>>>>>> Stashed changes

 OUTPUT CONTROL FOR STRESS PERIOD    1   TIME STEP  26
    SAVE HEAD FOR ALL LAYERS
    SAVE BUDGET
 UBDSV2 SAVING "   CONSTANT HEAD" ON UNIT  53 AT TIME STEP 26, STRESS PERIOD   1
 UBDSV1 SAVING "FLOW RIGHT FACE " ON UNIT  53 AT TIME STEP 26, STRESS PERIOD   1
 UBDSV1 SAVING "FLOW FRONT FACE " ON UNIT  53 AT TIME STEP 26, STRESS PERIOD   1
 UBDSV1 SAVING "FLOW LOWER FACE " ON UNIT  53 AT TIME STEP 26, STRESS PERIOD   1
 UBDSV1 SAVING "            DCDT" ON UNIT  53 AT TIME STEP 26, STRESS PERIOD   1

 HEAD WILL BE SAVED ON UNIT   51 AT END OF TIME STEP  26, STRESS PERIOD    1


                                          ================================================
                                                         FROM TIME =  0.26000     TO   0.27000    

 
 SOLVING FOR HEAD 
 FLOW MODEL IS TRANSIENT
 FLOW MODEL CONTAINS CONSTANT-HEAD CELLS


 MAXIMUM STEPSIZE DURING WHICH ANY PARTICLE CANNOT MOVE MORE THAN ONE CELL
<<<<<<< Updated upstream
 =  1.083    (WHEN MIN. R.F.=1)  AT K=   3, I=   2, J=  29

 MAXIMUM STEPSIZE WHICH MEETS STABILITY CRITERION OF THE ADVECTION TERM
 (FOR PURE FINITE-DIFFERENCE OPTION, MIXELM=0) 
 = 0.7513    (WHEN MIN. R.F.=1)  AT K=   3, I=   2, J=  28
=======
 =  1.237    (WHEN MIN. R.F.=1)  AT K=   3, I=   2, J=  31

 MAXIMUM STEPSIZE WHICH MEETS STABILITY CRITERION OF THE ADVECTION TERM
 (FOR PURE FINITE-DIFFERENCE OPTION, MIXELM=0) 
 = 0.8268    (WHEN MIN. R.F.=1)  AT K=   3, I=   2, J=  30
>>>>>>> Stashed changes


 TOTAL NUMBER OF POINT SOURCES/SINKS PRESENT IN THE FLOW MODEL =   240

 MAXIMUM STEPSIZE WHICH MEETS STABILITY CRITERION OF THE SINK & SOURCE TERM
 = 0.1000E+31(WHEN MIN. R.F.=1)  AT K=   0, I=   0, J=   0

 MAXIMUM STEPSIZE WHICH MEETS STABILITY CRITERION OF THE DISPERSION TERM
<<<<<<< Updated upstream
 = 0.4086E-01(WHEN MIN. R.F.=1)  AT K=   3, I=   2, J=  31
=======
 = 0.4437E-01(WHEN MIN. R.F.=1)  AT K=   3, I=   2, J=  30
>>>>>>> Stashed changes


     1 CALLS TO GCG PACKAGE FOR TRANSPORT TIME STEP   1 IN FLOW TIME STEP  27 STRESS PERIOD   1
     5 TOTAL ITERATIONS
  MAXIMUM CONCENTRATION CHANGES FOR EACH ITERATION:
  MAX. CHANGE LAYER,ROW,COL MAX. CHANGE LAYER,ROW,COL MAX. CHANGE LAYER,ROW,COL MAX. CHANGE LAYER,ROW,COL MAX. CHANGE LAYER,ROW,COL
 ------------------------------------------------------------------------------------------------------------------------------------
<<<<<<< Updated upstream
   0.3798E-02 (  2,  1, 46)  0.1403E-03 (  3,  2, 34)  0.6780E-05 (  4,  2, 33)  0.4237E-06 (  3,  3, 31)  0.2172E-07 (  4,  3, 31)
=======
   0.5351E-02 (  2,  1, 39)  0.2628E-03 (  3,  2, 37)  0.1045E-04 (  4,  2, 37)  0.5137E-06 (  3,  2, 37)  0.1895E-07 (  4,  2, 37)

 OUTPUT CONTROL FOR STRESS PERIOD    1   TIME STEP  27
    SAVE HEAD FOR ALL LAYERS
    SAVE BUDGET
 UBDSV2 SAVING "   CONSTANT HEAD" ON UNIT  53 AT TIME STEP 27, STRESS PERIOD   1
 UBDSV1 SAVING "FLOW RIGHT FACE " ON UNIT  53 AT TIME STEP 27, STRESS PERIOD   1
 UBDSV1 SAVING "FLOW FRONT FACE " ON UNIT  53 AT TIME STEP 27, STRESS PERIOD   1
 UBDSV1 SAVING "FLOW LOWER FACE " ON UNIT  53 AT TIME STEP 27, STRESS PERIOD   1
 UBDSV1 SAVING "            DCDT" ON UNIT  53 AT TIME STEP 27, STRESS PERIOD   1
>>>>>>> Stashed changes

 HEAD WILL BE SAVED ON UNIT   51 AT END OF TIME STEP  27, STRESS PERIOD    1


                                          ================================================
                                                         FROM TIME =  0.27000     TO   0.28000    

 
 SOLVING FOR HEAD 
 FLOW MODEL IS TRANSIENT
 FLOW MODEL CONTAINS CONSTANT-HEAD CELLS


 MAXIMUM STEPSIZE DURING WHICH ANY PARTICLE CANNOT MOVE MORE THAN ONE CELL
<<<<<<< Updated upstream
 =  1.083    (WHEN MIN. R.F.=1)  AT K=   3, I=   2, J=  29

 MAXIMUM STEPSIZE WHICH MEETS STABILITY CRITERION OF THE ADVECTION TERM
 (FOR PURE FINITE-DIFFERENCE OPTION, MIXELM=0) 
 = 0.7515    (WHEN MIN. R.F.=1)  AT K=   3, I=   2, J=  28
=======
 =  1.238    (WHEN MIN. R.F.=1)  AT K=   3, I=   2, J=  31

 MAXIMUM STEPSIZE WHICH MEETS STABILITY CRITERION OF THE ADVECTION TERM
 (FOR PURE FINITE-DIFFERENCE OPTION, MIXELM=0) 
 = 0.8271    (WHEN MIN. R.F.=1)  AT K=   3, I=   2, J=  30
>>>>>>> Stashed changes


 TOTAL NUMBER OF POINT SOURCES/SINKS PRESENT IN THE FLOW MODEL =   240

 MAXIMUM STEPSIZE WHICH MEETS STABILITY CRITERION OF THE SINK & SOURCE TERM
 = 0.1000E+31(WHEN MIN. R.F.=1)  AT K=   0, I=   0, J=   0

 MAXIMUM STEPSIZE WHICH MEETS STABILITY CRITERION OF THE DISPERSION TERM
<<<<<<< Updated upstream
 = 0.4087E-01(WHEN MIN. R.F.=1)  AT K=   3, I=   2, J=  31
=======
 = 0.4439E-01(WHEN MIN. R.F.=1)  AT K=   3, I=   2, J=  30
>>>>>>> Stashed changes


     1 CALLS TO GCG PACKAGE FOR TRANSPORT TIME STEP   1 IN FLOW TIME STEP  28 STRESS PERIOD   1
     5 TOTAL ITERATIONS
  MAXIMUM CONCENTRATION CHANGES FOR EACH ITERATION:
  MAX. CHANGE LAYER,ROW,COL MAX. CHANGE LAYER,ROW,COL MAX. CHANGE LAYER,ROW,COL MAX. CHANGE LAYER,ROW,COL MAX. CHANGE LAYER,ROW,COL
 ------------------------------------------------------------------------------------------------------------------------------------
<<<<<<< Updated upstream
   0.3738E-02 (  2,  1, 46)  0.1393E-03 (  3,  2, 34)  0.6712E-05 (  4,  2, 33)  0.4188E-06 (  3,  3, 31)  0.2141E-07 (  4,  3, 31)
=======
   0.5269E-02 (  2,  1, 39)  0.2600E-03 (  3,  2, 37)  0.1027E-04 (  4,  2, 37)  0.5113E-06 (  3,  2, 37)  0.1893E-07 (  4,  2, 37)

 OUTPUT CONTROL FOR STRESS PERIOD    1   TIME STEP  28
    SAVE HEAD FOR ALL LAYERS
    SAVE BUDGET
 UBDSV2 SAVING "   CONSTANT HEAD" ON UNIT  53 AT TIME STEP 28, STRESS PERIOD   1
 UBDSV1 SAVING "FLOW RIGHT FACE " ON UNIT  53 AT TIME STEP 28, STRESS PERIOD   1
 UBDSV1 SAVING "FLOW FRONT FACE " ON UNIT  53 AT TIME STEP 28, STRESS PERIOD   1
 UBDSV1 SAVING "FLOW LOWER FACE " ON UNIT  53 AT TIME STEP 28, STRESS PERIOD   1
 UBDSV1 SAVING "            DCDT" ON UNIT  53 AT TIME STEP 28, STRESS PERIOD   1
>>>>>>> Stashed changes

 HEAD WILL BE SAVED ON UNIT   51 AT END OF TIME STEP  28, STRESS PERIOD    1


                                          ================================================
                                                         FROM TIME =  0.28000     TO   0.29000    

 
 SOLVING FOR HEAD 
 FLOW MODEL IS TRANSIENT
 FLOW MODEL CONTAINS CONSTANT-HEAD CELLS


 MAXIMUM STEPSIZE DURING WHICH ANY PARTICLE CANNOT MOVE MORE THAN ONE CELL
<<<<<<< Updated upstream
 =  1.084    (WHEN MIN. R.F.=1)  AT K=   3, I=   2, J=  29

 MAXIMUM STEPSIZE WHICH MEETS STABILITY CRITERION OF THE ADVECTION TERM
 (FOR PURE FINITE-DIFFERENCE OPTION, MIXELM=0) 
 = 0.7518    (WHEN MIN. R.F.=1)  AT K=   3, I=   2, J=  28
=======
 =  1.238    (WHEN MIN. R.F.=1)  AT K=   3, I=   2, J=  31

 MAXIMUM STEPSIZE WHICH MEETS STABILITY CRITERION OF THE ADVECTION TERM
 (FOR PURE FINITE-DIFFERENCE OPTION, MIXELM=0) 
 = 0.8274    (WHEN MIN. R.F.=1)  AT K=   3, I=   2, J=  30
>>>>>>> Stashed changes


 TOTAL NUMBER OF POINT SOURCES/SINKS PRESENT IN THE FLOW MODEL =   240

 MAXIMUM STEPSIZE WHICH MEETS STABILITY CRITERION OF THE SINK & SOURCE TERM
 = 0.1000E+31(WHEN MIN. R.F.=1)  AT K=   0, I=   0, J=   0

 MAXIMUM STEPSIZE WHICH MEETS STABILITY CRITERION OF THE DISPERSION TERM
<<<<<<< Updated upstream
 = 0.4088E-01(WHEN MIN. R.F.=1)  AT K=   3, I=   2, J=  31
=======
 = 0.4440E-01(WHEN MIN. R.F.=1)  AT K=   3, I=   2, J=  30
>>>>>>> Stashed changes


     1 CALLS TO GCG PACKAGE FOR TRANSPORT TIME STEP   1 IN FLOW TIME STEP  29 STRESS PERIOD   1
     5 TOTAL ITERATIONS
  MAXIMUM CONCENTRATION CHANGES FOR EACH ITERATION:
  MAX. CHANGE LAYER,ROW,COL MAX. CHANGE LAYER,ROW,COL MAX. CHANGE LAYER,ROW,COL MAX. CHANGE LAYER,ROW,COL MAX. CHANGE LAYER,ROW,COL
 ------------------------------------------------------------------------------------------------------------------------------------
<<<<<<< Updated upstream
   0.3678E-02 (  2,  1, 46)  0.1382E-03 (  3,  2, 34)  0.6645E-05 (  4,  2, 33)  0.4139E-06 (  3,  3, 31)  0.2111E-07 (  4,  3, 31)
=======
   0.5189E-02 (  2,  1, 39)  0.2572E-03 (  3,  2, 37)  0.1011E-04 (  4,  2, 37)  0.5088E-06 (  3,  2, 37)  0.1892E-07 (  4,  2, 37)

 OUTPUT CONTROL FOR STRESS PERIOD    1   TIME STEP  29
    SAVE HEAD FOR ALL LAYERS
    SAVE BUDGET
 UBDSV2 SAVING "   CONSTANT HEAD" ON UNIT  53 AT TIME STEP 29, STRESS PERIOD   1
 UBDSV1 SAVING "FLOW RIGHT FACE " ON UNIT  53 AT TIME STEP 29, STRESS PERIOD   1
 UBDSV1 SAVING "FLOW FRONT FACE " ON UNIT  53 AT TIME STEP 29, STRESS PERIOD   1
 UBDSV1 SAVING "FLOW LOWER FACE " ON UNIT  53 AT TIME STEP 29, STRESS PERIOD   1
 UBDSV1 SAVING "            DCDT" ON UNIT  53 AT TIME STEP 29, STRESS PERIOD   1
>>>>>>> Stashed changes

 HEAD WILL BE SAVED ON UNIT   51 AT END OF TIME STEP  29, STRESS PERIOD    1


                                          ================================================
                                                         FROM TIME =  0.29000     TO   0.30000    

 
 SOLVING FOR HEAD 
 FLOW MODEL IS TRANSIENT
 FLOW MODEL CONTAINS CONSTANT-HEAD CELLS


 MAXIMUM STEPSIZE DURING WHICH ANY PARTICLE CANNOT MOVE MORE THAN ONE CELL
<<<<<<< Updated upstream
 =  1.084    (WHEN MIN. R.F.=1)  AT K=   3, I=   2, J=  29

 MAXIMUM STEPSIZE WHICH MEETS STABILITY CRITERION OF THE ADVECTION TERM
 (FOR PURE FINITE-DIFFERENCE OPTION, MIXELM=0) 
 = 0.7520    (WHEN MIN. R.F.=1)  AT K=   3, I=   2, J=  28
=======
 =  1.239    (WHEN MIN. R.F.=1)  AT K=   3, I=   2, J=  31

 MAXIMUM STEPSIZE WHICH MEETS STABILITY CRITERION OF THE ADVECTION TERM
 (FOR PURE FINITE-DIFFERENCE OPTION, MIXELM=0) 
 = 0.8278    (WHEN MIN. R.F.=1)  AT K=   3, I=   2, J=  30
>>>>>>> Stashed changes


 TOTAL NUMBER OF POINT SOURCES/SINKS PRESENT IN THE FLOW MODEL =   240

 MAXIMUM STEPSIZE WHICH MEETS STABILITY CRITERION OF THE SINK & SOURCE TERM
 = 0.1000E+31(WHEN MIN. R.F.=1)  AT K=   0, I=   0, J=   0

 MAXIMUM STEPSIZE WHICH MEETS STABILITY CRITERION OF THE DISPERSION TERM
<<<<<<< Updated upstream
 = 0.4090E-01(WHEN MIN. R.F.=1)  AT K=   3, I=   2, J=  31
=======
 = 0.4442E-01(WHEN MIN. R.F.=1)  AT K=   3, I=   2, J=  30
>>>>>>> Stashed changes


     1 CALLS TO GCG PACKAGE FOR TRANSPORT TIME STEP   1 IN FLOW TIME STEP  30 STRESS PERIOD   1
     5 TOTAL ITERATIONS
  MAXIMUM CONCENTRATION CHANGES FOR EACH ITERATION:
  MAX. CHANGE LAYER,ROW,COL MAX. CHANGE LAYER,ROW,COL MAX. CHANGE LAYER,ROW,COL MAX. CHANGE LAYER,ROW,COL MAX. CHANGE LAYER,ROW,COL
 ------------------------------------------------------------------------------------------------------------------------------------
<<<<<<< Updated upstream
   0.3620E-02 (  2,  1, 46)  0.1372E-03 (  3,  2, 34)  0.6579E-05 (  4,  2, 33)  0.4091E-06 (  3,  3, 31)  0.2081E-07 (  4,  3, 31)
=======
   0.5110E-02 (  2,  1, 39)  0.2545E-03 (  3,  2, 37)  0.9946E-05 (  4,  2, 37)  0.5063E-06 (  3,  2, 37)  0.1890E-07 (  4,  2, 37)
>>>>>>> Stashed changes

 OUTPUT CONTROL FOR STRESS PERIOD    1   TIME STEP  30
    SAVE HEAD FOR ALL LAYERS
    SAVE BUDGET
 UBDSV2 SAVING "   CONSTANT HEAD" ON UNIT  53 AT TIME STEP 30, STRESS PERIOD   1
 UBDSV1 SAVING "FLOW RIGHT FACE " ON UNIT  53 AT TIME STEP 30, STRESS PERIOD   1
 UBDSV1 SAVING "FLOW FRONT FACE " ON UNIT  53 AT TIME STEP 30, STRESS PERIOD   1
 UBDSV1 SAVING "FLOW LOWER FACE " ON UNIT  53 AT TIME STEP 30, STRESS PERIOD   1
 UBDSV1 SAVING "            DCDT" ON UNIT  53 AT TIME STEP 30, STRESS PERIOD   1

 HEAD WILL BE SAVED ON UNIT   51 AT END OF TIME STEP  30, STRESS PERIOD    1


                                          ================================================
                                                         FROM TIME =  0.30000     TO   0.31000    

 
 SOLVING FOR HEAD 
 FLOW MODEL IS TRANSIENT
 FLOW MODEL CONTAINS CONSTANT-HEAD CELLS


 MAXIMUM STEPSIZE DURING WHICH ANY PARTICLE CANNOT MOVE MORE THAN ONE CELL
<<<<<<< Updated upstream
 =  1.084    (WHEN MIN. R.F.=1)  AT K=   3, I=   2, J=  29

 MAXIMUM STEPSIZE WHICH MEETS STABILITY CRITERION OF THE ADVECTION TERM
 (FOR PURE FINITE-DIFFERENCE OPTION, MIXELM=0) 
 = 0.7523    (WHEN MIN. R.F.=1)  AT K=   3, I=   2, J=  28
=======
 =  1.239    (WHEN MIN. R.F.=1)  AT K=   3, I=   2, J=  31

 MAXIMUM STEPSIZE WHICH MEETS STABILITY CRITERION OF THE ADVECTION TERM
 (FOR PURE FINITE-DIFFERENCE OPTION, MIXELM=0) 
 = 0.8281    (WHEN MIN. R.F.=1)  AT K=   3, I=   2, J=  30
>>>>>>> Stashed changes


 TOTAL NUMBER OF POINT SOURCES/SINKS PRESENT IN THE FLOW MODEL =   240

 MAXIMUM STEPSIZE WHICH MEETS STABILITY CRITERION OF THE SINK & SOURCE TERM
 = 0.1000E+31(WHEN MIN. R.F.=1)  AT K=   0, I=   0, J=   0

 MAXIMUM STEPSIZE WHICH MEETS STABILITY CRITERION OF THE DISPERSION TERM
<<<<<<< Updated upstream
 = 0.4091E-01(WHEN MIN. R.F.=1)  AT K=   3, I=   2, J=  31
=======
 = 0.4443E-01(WHEN MIN. R.F.=1)  AT K=   3, I=   2, J=  30
>>>>>>> Stashed changes


     1 CALLS TO GCG PACKAGE FOR TRANSPORT TIME STEP   1 IN FLOW TIME STEP  31 STRESS PERIOD   1
     5 TOTAL ITERATIONS
  MAXIMUM CONCENTRATION CHANGES FOR EACH ITERATION:
  MAX. CHANGE LAYER,ROW,COL MAX. CHANGE LAYER,ROW,COL MAX. CHANGE LAYER,ROW,COL MAX. CHANGE LAYER,ROW,COL MAX. CHANGE LAYER,ROW,COL
 ------------------------------------------------------------------------------------------------------------------------------------
<<<<<<< Updated upstream
   0.3563E-02 (  2,  1, 46)  0.1362E-03 (  3,  2, 34)  0.6515E-05 (  4,  2, 33)  0.4043E-06 (  3,  3, 31)  0.2053E-07 (  4,  3, 31)
=======
   0.5033E-02 (  2,  1, 39)  0.2519E-03 (  3,  2, 37)  0.9791E-05 (  4,  2, 37)  0.5038E-06 (  3,  2, 37)  0.1889E-07 (  4,  2, 37)

 OUTPUT CONTROL FOR STRESS PERIOD    1   TIME STEP  31
    SAVE HEAD FOR ALL LAYERS
    SAVE BUDGET
 UBDSV2 SAVING "   CONSTANT HEAD" ON UNIT  53 AT TIME STEP 31, STRESS PERIOD   1
 UBDSV1 SAVING "FLOW RIGHT FACE " ON UNIT  53 AT TIME STEP 31, STRESS PERIOD   1
 UBDSV1 SAVING "FLOW FRONT FACE " ON UNIT  53 AT TIME STEP 31, STRESS PERIOD   1
 UBDSV1 SAVING "FLOW LOWER FACE " ON UNIT  53 AT TIME STEP 31, STRESS PERIOD   1
 UBDSV1 SAVING "            DCDT" ON UNIT  53 AT TIME STEP 31, STRESS PERIOD   1
>>>>>>> Stashed changes

 HEAD WILL BE SAVED ON UNIT   51 AT END OF TIME STEP  31, STRESS PERIOD    1


                                          ================================================
                                                         FROM TIME =  0.31000     TO   0.32000    

 
 SOLVING FOR HEAD 
 FLOW MODEL IS TRANSIENT
 FLOW MODEL CONTAINS CONSTANT-HEAD CELLS


 MAXIMUM STEPSIZE DURING WHICH ANY PARTICLE CANNOT MOVE MORE THAN ONE CELL
<<<<<<< Updated upstream
 =  1.085    (WHEN MIN. R.F.=1)  AT K=   3, I=   2, J=  29

 MAXIMUM STEPSIZE WHICH MEETS STABILITY CRITERION OF THE ADVECTION TERM
 (FOR PURE FINITE-DIFFERENCE OPTION, MIXELM=0) 
 = 0.7525    (WHEN MIN. R.F.=1)  AT K=   3, I=   2, J=  28
=======
 =  1.240    (WHEN MIN. R.F.=1)  AT K=   3, I=   2, J=  31

 MAXIMUM STEPSIZE WHICH MEETS STABILITY CRITERION OF THE ADVECTION TERM
 (FOR PURE FINITE-DIFFERENCE OPTION, MIXELM=0) 
 = 0.8284    (WHEN MIN. R.F.=1)  AT K=   3, I=   2, J=  30
>>>>>>> Stashed changes


 TOTAL NUMBER OF POINT SOURCES/SINKS PRESENT IN THE FLOW MODEL =   240

 MAXIMUM STEPSIZE WHICH MEETS STABILITY CRITERION OF THE SINK & SOURCE TERM
 = 0.1000E+31(WHEN MIN. R.F.=1)  AT K=   0, I=   0, J=   0

 MAXIMUM STEPSIZE WHICH MEETS STABILITY CRITERION OF THE DISPERSION TERM
<<<<<<< Updated upstream
 = 0.4092E-01(WHEN MIN. R.F.=1)  AT K=   3, I=   2, J=  31
=======
 = 0.4444E-01(WHEN MIN. R.F.=1)  AT K=   3, I=   2, J=  30
>>>>>>> Stashed changes


     1 CALLS TO GCG PACKAGE FOR TRANSPORT TIME STEP   1 IN FLOW TIME STEP  32 STRESS PERIOD   1
     5 TOTAL ITERATIONS
  MAXIMUM CONCENTRATION CHANGES FOR EACH ITERATION:
  MAX. CHANGE LAYER,ROW,COL MAX. CHANGE LAYER,ROW,COL MAX. CHANGE LAYER,ROW,COL MAX. CHANGE LAYER,ROW,COL MAX. CHANGE LAYER,ROW,COL
 ------------------------------------------------------------------------------------------------------------------------------------
<<<<<<< Updated upstream
   0.3507E-02 (  2,  1, 46)  0.1351E-03 (  3,  2, 34)  0.6451E-05 (  4,  2, 33)  0.3996E-06 (  3,  3, 31)  0.2024E-07 (  4,  3, 31)
=======
   0.4956E-02 (  2,  1, 39)  0.2492E-03 (  3,  2, 37)  0.9641E-05 (  4,  2, 37)  0.5012E-06 (  3,  2, 37)  0.1887E-07 (  4,  2, 37)

 OUTPUT CONTROL FOR STRESS PERIOD    1   TIME STEP  32
    SAVE HEAD FOR ALL LAYERS
    SAVE BUDGET
 UBDSV2 SAVING "   CONSTANT HEAD" ON UNIT  53 AT TIME STEP 32, STRESS PERIOD   1
 UBDSV1 SAVING "FLOW RIGHT FACE " ON UNIT  53 AT TIME STEP 32, STRESS PERIOD   1
 UBDSV1 SAVING "FLOW FRONT FACE " ON UNIT  53 AT TIME STEP 32, STRESS PERIOD   1
 UBDSV1 SAVING "FLOW LOWER FACE " ON UNIT  53 AT TIME STEP 32, STRESS PERIOD   1
 UBDSV1 SAVING "            DCDT" ON UNIT  53 AT TIME STEP 32, STRESS PERIOD   1
>>>>>>> Stashed changes

 HEAD WILL BE SAVED ON UNIT   51 AT END OF TIME STEP  32, STRESS PERIOD    1


                                          ================================================
                                                         FROM TIME =  0.32000     TO   0.33000    

 
 SOLVING FOR HEAD 
 FLOW MODEL IS TRANSIENT
 FLOW MODEL CONTAINS CONSTANT-HEAD CELLS


 MAXIMUM STEPSIZE DURING WHICH ANY PARTICLE CANNOT MOVE MORE THAN ONE CELL
<<<<<<< Updated upstream
 =  1.085    (WHEN MIN. R.F.=1)  AT K=   3, I=   2, J=  29

 MAXIMUM STEPSIZE WHICH MEETS STABILITY CRITERION OF THE ADVECTION TERM
 (FOR PURE FINITE-DIFFERENCE OPTION, MIXELM=0) 
 = 0.7528    (WHEN MIN. R.F.=1)  AT K=   3, I=   2, J=  28
=======
 =  1.240    (WHEN MIN. R.F.=1)  AT K=   3, I=   2, J=  31

 MAXIMUM STEPSIZE WHICH MEETS STABILITY CRITERION OF THE ADVECTION TERM
 (FOR PURE FINITE-DIFFERENCE OPTION, MIXELM=0) 
 = 0.8287    (WHEN MIN. R.F.=1)  AT K=   3, I=   2, J=  30
>>>>>>> Stashed changes


 TOTAL NUMBER OF POINT SOURCES/SINKS PRESENT IN THE FLOW MODEL =   240

 MAXIMUM STEPSIZE WHICH MEETS STABILITY CRITERION OF THE SINK & SOURCE TERM
 = 0.1000E+31(WHEN MIN. R.F.=1)  AT K=   0, I=   0, J=   0

 MAXIMUM STEPSIZE WHICH MEETS STABILITY CRITERION OF THE DISPERSION TERM
<<<<<<< Updated upstream
 = 0.4093E-01(WHEN MIN. R.F.=1)  AT K=   3, I=   2, J=  31
=======
 = 0.4446E-01(WHEN MIN. R.F.=1)  AT K=   3, I=   2, J=  30
>>>>>>> Stashed changes


     1 CALLS TO GCG PACKAGE FOR TRANSPORT TIME STEP   1 IN FLOW TIME STEP  33 STRESS PERIOD   1
     5 TOTAL ITERATIONS
  MAXIMUM CONCENTRATION CHANGES FOR EACH ITERATION:
  MAX. CHANGE LAYER,ROW,COL MAX. CHANGE LAYER,ROW,COL MAX. CHANGE LAYER,ROW,COL MAX. CHANGE LAYER,ROW,COL MAX. CHANGE LAYER,ROW,COL
 ------------------------------------------------------------------------------------------------------------------------------------
<<<<<<< Updated upstream
   0.3452E-02 (  2,  1, 46)  0.1341E-03 (  3,  2, 34)  0.6389E-05 (  4,  2, 33)  0.3956E-06 (  3,  2, 31)  0.1996E-07 (  4,  3, 31)
=======
   0.4880E-02 (  2,  1, 39)  0.2467E-03 (  3,  2, 37)  0.9495E-05 (  4,  2, 37)  0.4987E-06 (  3,  2, 37)  0.1885E-07 (  4,  2, 37)

 OUTPUT CONTROL FOR STRESS PERIOD    1   TIME STEP  33
    SAVE HEAD FOR ALL LAYERS
    SAVE BUDGET
 UBDSV2 SAVING "   CONSTANT HEAD" ON UNIT  53 AT TIME STEP 33, STRESS PERIOD   1
 UBDSV1 SAVING "FLOW RIGHT FACE " ON UNIT  53 AT TIME STEP 33, STRESS PERIOD   1
 UBDSV1 SAVING "FLOW FRONT FACE " ON UNIT  53 AT TIME STEP 33, STRESS PERIOD   1
 UBDSV1 SAVING "FLOW LOWER FACE " ON UNIT  53 AT TIME STEP 33, STRESS PERIOD   1
 UBDSV1 SAVING "            DCDT" ON UNIT  53 AT TIME STEP 33, STRESS PERIOD   1
>>>>>>> Stashed changes

 HEAD WILL BE SAVED ON UNIT   51 AT END OF TIME STEP  33, STRESS PERIOD    1


                                          ================================================
                                                         FROM TIME =  0.33000     TO   0.34000    

 
 SOLVING FOR HEAD 
 FLOW MODEL IS TRANSIENT
 FLOW MODEL CONTAINS CONSTANT-HEAD CELLS


 MAXIMUM STEPSIZE DURING WHICH ANY PARTICLE CANNOT MOVE MORE THAN ONE CELL
<<<<<<< Updated upstream
 =  1.085    (WHEN MIN. R.F.=1)  AT K=   3, I=   2, J=  29

 MAXIMUM STEPSIZE WHICH MEETS STABILITY CRITERION OF THE ADVECTION TERM
 (FOR PURE FINITE-DIFFERENCE OPTION, MIXELM=0) 
 = 0.7530    (WHEN MIN. R.F.=1)  AT K=   3, I=   2, J=  28
=======
 =  1.241    (WHEN MIN. R.F.=1)  AT K=   3, I=   2, J=  31

 MAXIMUM STEPSIZE WHICH MEETS STABILITY CRITERION OF THE ADVECTION TERM
 (FOR PURE FINITE-DIFFERENCE OPTION, MIXELM=0) 
 = 0.8291    (WHEN MIN. R.F.=1)  AT K=   3, I=   2, J=  30
>>>>>>> Stashed changes


 TOTAL NUMBER OF POINT SOURCES/SINKS PRESENT IN THE FLOW MODEL =   240

 MAXIMUM STEPSIZE WHICH MEETS STABILITY CRITERION OF THE SINK & SOURCE TERM
 = 0.1000E+31(WHEN MIN. R.F.=1)  AT K=   0, I=   0, J=   0

 MAXIMUM STEPSIZE WHICH MEETS STABILITY CRITERION OF THE DISPERSION TERM
<<<<<<< Updated upstream
 = 0.4095E-01(WHEN MIN. R.F.=1)  AT K=   3, I=   2, J=  31
=======
 = 0.4447E-01(WHEN MIN. R.F.=1)  AT K=   3, I=   2, J=  30
>>>>>>> Stashed changes


     1 CALLS TO GCG PACKAGE FOR TRANSPORT TIME STEP   1 IN FLOW TIME STEP  34 STRESS PERIOD   1
     5 TOTAL ITERATIONS
  MAXIMUM CONCENTRATION CHANGES FOR EACH ITERATION:
  MAX. CHANGE LAYER,ROW,COL MAX. CHANGE LAYER,ROW,COL MAX. CHANGE LAYER,ROW,COL MAX. CHANGE LAYER,ROW,COL MAX. CHANGE LAYER,ROW,COL
 ------------------------------------------------------------------------------------------------------------------------------------
<<<<<<< Updated upstream
   0.3399E-02 (  2,  1, 46)  0.1331E-03 (  3,  2, 34)  0.6328E-05 (  4,  2, 33)  0.3920E-06 (  3,  2, 31)  0.1969E-07 (  4,  3, 31)
=======
   0.4806E-02 (  2,  1, 39)  0.2441E-03 (  3,  2, 37)  0.9355E-05 (  4,  2, 37)  0.4961E-06 (  3,  2, 37)  0.1883E-07 (  4,  2, 37)
>>>>>>> Stashed changes

 OUTPUT CONTROL FOR STRESS PERIOD    1   TIME STEP  34
    SAVE HEAD FOR ALL LAYERS
    SAVE BUDGET
 UBDSV2 SAVING "   CONSTANT HEAD" ON UNIT  53 AT TIME STEP 34, STRESS PERIOD   1
 UBDSV1 SAVING "FLOW RIGHT FACE " ON UNIT  53 AT TIME STEP 34, STRESS PERIOD   1
 UBDSV1 SAVING "FLOW FRONT FACE " ON UNIT  53 AT TIME STEP 34, STRESS PERIOD   1
 UBDSV1 SAVING "FLOW LOWER FACE " ON UNIT  53 AT TIME STEP 34, STRESS PERIOD   1
 UBDSV1 SAVING "            DCDT" ON UNIT  53 AT TIME STEP 34, STRESS PERIOD   1

 HEAD WILL BE SAVED ON UNIT   51 AT END OF TIME STEP  34, STRESS PERIOD    1


                                          ================================================
                                                         FROM TIME =  0.34000     TO   0.35000    

 
 SOLVING FOR HEAD 
 FLOW MODEL IS TRANSIENT
 FLOW MODEL CONTAINS CONSTANT-HEAD CELLS


 MAXIMUM STEPSIZE DURING WHICH ANY PARTICLE CANNOT MOVE MORE THAN ONE CELL
<<<<<<< Updated upstream
 =  1.086    (WHEN MIN. R.F.=1)  AT K=   3, I=   2, J=  29

 MAXIMUM STEPSIZE WHICH MEETS STABILITY CRITERION OF THE ADVECTION TERM
 (FOR PURE FINITE-DIFFERENCE OPTION, MIXELM=0) 
 = 0.7533    (WHEN MIN. R.F.=1)  AT K=   3, I=   2, J=  28
=======
 =  1.241    (WHEN MIN. R.F.=1)  AT K=   3, I=   2, J=  31

 MAXIMUM STEPSIZE WHICH MEETS STABILITY CRITERION OF THE ADVECTION TERM
 (FOR PURE FINITE-DIFFERENCE OPTION, MIXELM=0) 
 = 0.8294    (WHEN MIN. R.F.=1)  AT K=   3, I=   2, J=  30
>>>>>>> Stashed changes


 TOTAL NUMBER OF POINT SOURCES/SINKS PRESENT IN THE FLOW MODEL =   240

 MAXIMUM STEPSIZE WHICH MEETS STABILITY CRITERION OF THE SINK & SOURCE TERM
 = 0.1000E+31(WHEN MIN. R.F.=1)  AT K=   0, I=   0, J=   0

 MAXIMUM STEPSIZE WHICH MEETS STABILITY CRITERION OF THE DISPERSION TERM
<<<<<<< Updated upstream
 = 0.4096E-01(WHEN MIN. R.F.=1)  AT K=   3, I=   2, J=  31
=======
 = 0.4449E-01(WHEN MIN. R.F.=1)  AT K=   3, I=   2, J=  30
>>>>>>> Stashed changes


     1 CALLS TO GCG PACKAGE FOR TRANSPORT TIME STEP   1 IN FLOW TIME STEP  35 STRESS PERIOD   1
     5 TOTAL ITERATIONS
  MAXIMUM CONCENTRATION CHANGES FOR EACH ITERATION:
  MAX. CHANGE LAYER,ROW,COL MAX. CHANGE LAYER,ROW,COL MAX. CHANGE LAYER,ROW,COL MAX. CHANGE LAYER,ROW,COL MAX. CHANGE LAYER,ROW,COL
 ------------------------------------------------------------------------------------------------------------------------------------
<<<<<<< Updated upstream
   0.3346E-02 (  2,  1, 46)  0.1321E-03 (  3,  2, 34)  0.6269E-05 (  4,  2, 33)  0.3885E-06 (  3,  2, 31)  0.1943E-07 (  4,  3, 31)
=======
   0.4734E-02 (  2,  1, 40)  0.2416E-03 (  3,  2, 37)  0.9218E-05 (  4,  2, 37)  0.4935E-06 (  3,  2, 37)  0.1880E-07 (  4,  2, 37)

 OUTPUT CONTROL FOR STRESS PERIOD    1   TIME STEP  35
    SAVE HEAD FOR ALL LAYERS
    SAVE BUDGET
 UBDSV2 SAVING "   CONSTANT HEAD" ON UNIT  53 AT TIME STEP 35, STRESS PERIOD   1
 UBDSV1 SAVING "FLOW RIGHT FACE " ON UNIT  53 AT TIME STEP 35, STRESS PERIOD   1
 UBDSV1 SAVING "FLOW FRONT FACE " ON UNIT  53 AT TIME STEP 35, STRESS PERIOD   1
 UBDSV1 SAVING "FLOW LOWER FACE " ON UNIT  53 AT TIME STEP 35, STRESS PERIOD   1
 UBDSV1 SAVING "            DCDT" ON UNIT  53 AT TIME STEP 35, STRESS PERIOD   1
>>>>>>> Stashed changes

 HEAD WILL BE SAVED ON UNIT   51 AT END OF TIME STEP  35, STRESS PERIOD    1


                                          ================================================
                                                         FROM TIME =  0.35000     TO   0.36000    

 
 SOLVING FOR HEAD 
 FLOW MODEL IS TRANSIENT
 FLOW MODEL CONTAINS CONSTANT-HEAD CELLS


 MAXIMUM STEPSIZE DURING WHICH ANY PARTICLE CANNOT MOVE MORE THAN ONE CELL
<<<<<<< Updated upstream
 =  1.086    (WHEN MIN. R.F.=1)  AT K=   3, I=   2, J=  29

 MAXIMUM STEPSIZE WHICH MEETS STABILITY CRITERION OF THE ADVECTION TERM
 (FOR PURE FINITE-DIFFERENCE OPTION, MIXELM=0) 
 = 0.7536    (WHEN MIN. R.F.=1)  AT K=   3, I=   2, J=  28
=======
 =  1.242    (WHEN MIN. R.F.=1)  AT K=   3, I=   2, J=  31

 MAXIMUM STEPSIZE WHICH MEETS STABILITY CRITERION OF THE ADVECTION TERM
 (FOR PURE FINITE-DIFFERENCE OPTION, MIXELM=0) 
 = 0.8298    (WHEN MIN. R.F.=1)  AT K=   3, I=   2, J=  30
>>>>>>> Stashed changes


 TOTAL NUMBER OF POINT SOURCES/SINKS PRESENT IN THE FLOW MODEL =   240

 MAXIMUM STEPSIZE WHICH MEETS STABILITY CRITERION OF THE SINK & SOURCE TERM
 = 0.1000E+31(WHEN MIN. R.F.=1)  AT K=   0, I=   0, J=   0

 MAXIMUM STEPSIZE WHICH MEETS STABILITY CRITERION OF THE DISPERSION TERM
<<<<<<< Updated upstream
 = 0.4098E-01(WHEN MIN. R.F.=1)  AT K=   3, I=   2, J=  31
=======
 = 0.4450E-01(WHEN MIN. R.F.=1)  AT K=   3, I=   2, J=  30
>>>>>>> Stashed changes


     1 CALLS TO GCG PACKAGE FOR TRANSPORT TIME STEP   1 IN FLOW TIME STEP  36 STRESS PERIOD   1
     5 TOTAL ITERATIONS
  MAXIMUM CONCENTRATION CHANGES FOR EACH ITERATION:
  MAX. CHANGE LAYER,ROW,COL MAX. CHANGE LAYER,ROW,COL MAX. CHANGE LAYER,ROW,COL MAX. CHANGE LAYER,ROW,COL MAX. CHANGE LAYER,ROW,COL
 ------------------------------------------------------------------------------------------------------------------------------------
<<<<<<< Updated upstream
   0.3294E-02 (  2,  1, 46)  0.1311E-03 (  3,  2, 34)  0.6210E-05 (  4,  2, 33)  0.3850E-06 (  3,  2, 31)  0.1916E-07 (  4,  3, 31)
=======
   0.4665E-02 (  2,  1, 40)  0.2392E-03 (  3,  2, 37)  0.9086E-05 (  4,  2, 37)  0.4909E-06 (  3,  2, 37)  0.1878E-07 (  4,  2, 37)

 OUTPUT CONTROL FOR STRESS PERIOD    1   TIME STEP  36
    SAVE HEAD FOR ALL LAYERS
    SAVE BUDGET
 UBDSV2 SAVING "   CONSTANT HEAD" ON UNIT  53 AT TIME STEP 36, STRESS PERIOD   1
 UBDSV1 SAVING "FLOW RIGHT FACE " ON UNIT  53 AT TIME STEP 36, STRESS PERIOD   1
 UBDSV1 SAVING "FLOW FRONT FACE " ON UNIT  53 AT TIME STEP 36, STRESS PERIOD   1
 UBDSV1 SAVING "FLOW LOWER FACE " ON UNIT  53 AT TIME STEP 36, STRESS PERIOD   1
 UBDSV1 SAVING "            DCDT" ON UNIT  53 AT TIME STEP 36, STRESS PERIOD   1
>>>>>>> Stashed changes

 HEAD WILL BE SAVED ON UNIT   51 AT END OF TIME STEP  36, STRESS PERIOD    1


                                          ================================================
                                                         FROM TIME =  0.36000     TO   0.37000    

 
 SOLVING FOR HEAD 
 FLOW MODEL IS TRANSIENT
 FLOW MODEL CONTAINS CONSTANT-HEAD CELLS


 MAXIMUM STEPSIZE DURING WHICH ANY PARTICLE CANNOT MOVE MORE THAN ONE CELL
<<<<<<< Updated upstream
 =  1.086    (WHEN MIN. R.F.=1)  AT K=   3, I=   2, J=  29

 MAXIMUM STEPSIZE WHICH MEETS STABILITY CRITERION OF THE ADVECTION TERM
 (FOR PURE FINITE-DIFFERENCE OPTION, MIXELM=0) 
 = 0.7538    (WHEN MIN. R.F.=1)  AT K=   3, I=   2, J=  28
=======
 =  1.242    (WHEN MIN. R.F.=1)  AT K=   3, I=   2, J=  31

 MAXIMUM STEPSIZE WHICH MEETS STABILITY CRITERION OF THE ADVECTION TERM
 (FOR PURE FINITE-DIFFERENCE OPTION, MIXELM=0) 
 = 0.8301    (WHEN MIN. R.F.=1)  AT K=   3, I=   2, J=  30
>>>>>>> Stashed changes


 TOTAL NUMBER OF POINT SOURCES/SINKS PRESENT IN THE FLOW MODEL =   240

 MAXIMUM STEPSIZE WHICH MEETS STABILITY CRITERION OF THE SINK & SOURCE TERM
 = 0.1000E+31(WHEN MIN. R.F.=1)  AT K=   0, I=   0, J=   0

 MAXIMUM STEPSIZE WHICH MEETS STABILITY CRITERION OF THE DISPERSION TERM
<<<<<<< Updated upstream
 = 0.4099E-01(WHEN MIN. R.F.=1)  AT K=   3, I=   2, J=  31
=======
 = 0.4452E-01(WHEN MIN. R.F.=1)  AT K=   3, I=   2, J=  30
>>>>>>> Stashed changes


     1 CALLS TO GCG PACKAGE FOR TRANSPORT TIME STEP   1 IN FLOW TIME STEP  37 STRESS PERIOD   1
     5 TOTAL ITERATIONS
  MAXIMUM CONCENTRATION CHANGES FOR EACH ITERATION:
  MAX. CHANGE LAYER,ROW,COL MAX. CHANGE LAYER,ROW,COL MAX. CHANGE LAYER,ROW,COL MAX. CHANGE LAYER,ROW,COL MAX. CHANGE LAYER,ROW,COL
 ------------------------------------------------------------------------------------------------------------------------------------
<<<<<<< Updated upstream
   0.3244E-02 (  2,  1, 47)  0.1301E-03 (  3,  2, 34)  0.6153E-05 (  4,  2, 33)  0.3816E-06 (  3,  2, 31)  0.1891E-07 (  4,  3, 31)
=======
   0.4597E-02 (  2,  1, 40)  0.2367E-03 (  3,  2, 37)  0.8958E-05 (  4,  2, 37)  0.4882E-06 (  3,  2, 37)  0.1875E-07 (  4,  2, 37)

 OUTPUT CONTROL FOR STRESS PERIOD    1   TIME STEP  37
    SAVE HEAD FOR ALL LAYERS
    SAVE BUDGET
 UBDSV2 SAVING "   CONSTANT HEAD" ON UNIT  53 AT TIME STEP 37, STRESS PERIOD   1
 UBDSV1 SAVING "FLOW RIGHT FACE " ON UNIT  53 AT TIME STEP 37, STRESS PERIOD   1
 UBDSV1 SAVING "FLOW FRONT FACE " ON UNIT  53 AT TIME STEP 37, STRESS PERIOD   1
 UBDSV1 SAVING "FLOW LOWER FACE " ON UNIT  53 AT TIME STEP 37, STRESS PERIOD   1
 UBDSV1 SAVING "            DCDT" ON UNIT  53 AT TIME STEP 37, STRESS PERIOD   1
>>>>>>> Stashed changes

 HEAD WILL BE SAVED ON UNIT   51 AT END OF TIME STEP  37, STRESS PERIOD    1


                                          ================================================
                                                         FROM TIME =  0.37000     TO   0.38000    

 
 SOLVING FOR HEAD 
 FLOW MODEL IS TRANSIENT
 FLOW MODEL CONTAINS CONSTANT-HEAD CELLS


 MAXIMUM STEPSIZE DURING WHICH ANY PARTICLE CANNOT MOVE MORE THAN ONE CELL
<<<<<<< Updated upstream
 =  1.087    (WHEN MIN. R.F.=1)  AT K=   3, I=   2, J=  29

 MAXIMUM STEPSIZE WHICH MEETS STABILITY CRITERION OF THE ADVECTION TERM
 (FOR PURE FINITE-DIFFERENCE OPTION, MIXELM=0) 
 = 0.7541    (WHEN MIN. R.F.=1)  AT K=   3, I=   2, J=  28
=======
 =  1.243    (WHEN MIN. R.F.=1)  AT K=   3, I=   2, J=  31

 MAXIMUM STEPSIZE WHICH MEETS STABILITY CRITERION OF THE ADVECTION TERM
 (FOR PURE FINITE-DIFFERENCE OPTION, MIXELM=0) 
 = 0.8304    (WHEN MIN. R.F.=1)  AT K=   3, I=   2, J=  30
>>>>>>> Stashed changes


 TOTAL NUMBER OF POINT SOURCES/SINKS PRESENT IN THE FLOW MODEL =   240

 MAXIMUM STEPSIZE WHICH MEETS STABILITY CRITERION OF THE SINK & SOURCE TERM
 = 0.1000E+31(WHEN MIN. R.F.=1)  AT K=   0, I=   0, J=   0

 MAXIMUM STEPSIZE WHICH MEETS STABILITY CRITERION OF THE DISPERSION TERM
<<<<<<< Updated upstream
 = 0.4100E-01(WHEN MIN. R.F.=1)  AT K=   3, I=   2, J=  31
=======
 = 0.4453E-01(WHEN MIN. R.F.=1)  AT K=   3, I=   2, J=  30
>>>>>>> Stashed changes


     1 CALLS TO GCG PACKAGE FOR TRANSPORT TIME STEP   1 IN FLOW TIME STEP  38 STRESS PERIOD   1
     5 TOTAL ITERATIONS
  MAXIMUM CONCENTRATION CHANGES FOR EACH ITERATION:
  MAX. CHANGE LAYER,ROW,COL MAX. CHANGE LAYER,ROW,COL MAX. CHANGE LAYER,ROW,COL MAX. CHANGE LAYER,ROW,COL MAX. CHANGE LAYER,ROW,COL
 ------------------------------------------------------------------------------------------------------------------------------------
<<<<<<< Updated upstream
   0.3197E-02 (  2,  1, 47)  0.1291E-03 (  3,  2, 34)  0.6096E-05 (  4,  2, 33)  0.3782E-06 (  3,  2, 31)  0.1866E-07 (  4,  3, 31)
=======
   0.4530E-02 (  2,  1, 40)  0.2344E-03 (  3,  2, 37)  0.8834E-05 (  4,  2, 37)  0.4856E-06 (  3,  2, 37)  0.1871E-07 (  4,  2, 37)
>>>>>>> Stashed changes

 OUTPUT CONTROL FOR STRESS PERIOD    1   TIME STEP  38
    SAVE HEAD FOR ALL LAYERS
    SAVE BUDGET
 UBDSV2 SAVING "   CONSTANT HEAD" ON UNIT  53 AT TIME STEP 38, STRESS PERIOD   1
 UBDSV1 SAVING "FLOW RIGHT FACE " ON UNIT  53 AT TIME STEP 38, STRESS PERIOD   1
 UBDSV1 SAVING "FLOW FRONT FACE " ON UNIT  53 AT TIME STEP 38, STRESS PERIOD   1
 UBDSV1 SAVING "FLOW LOWER FACE " ON UNIT  53 AT TIME STEP 38, STRESS PERIOD   1
 UBDSV1 SAVING "            DCDT" ON UNIT  53 AT TIME STEP 38, STRESS PERIOD   1

 HEAD WILL BE SAVED ON UNIT   51 AT END OF TIME STEP  38, STRESS PERIOD    1


                                          ================================================
                                                         FROM TIME =  0.38000     TO   0.39000    

 
 SOLVING FOR HEAD 
 FLOW MODEL IS TRANSIENT
 FLOW MODEL CONTAINS CONSTANT-HEAD CELLS


 MAXIMUM STEPSIZE DURING WHICH ANY PARTICLE CANNOT MOVE MORE THAN ONE CELL
<<<<<<< Updated upstream
 =  1.087    (WHEN MIN. R.F.=1)  AT K=   3, I=   2, J=  29

 MAXIMUM STEPSIZE WHICH MEETS STABILITY CRITERION OF THE ADVECTION TERM
 (FOR PURE FINITE-DIFFERENCE OPTION, MIXELM=0) 
 = 0.7544    (WHEN MIN. R.F.=1)  AT K=   3, I=   2, J=  28
=======
 =  1.243    (WHEN MIN. R.F.=1)  AT K=   3, I=   2, J=  31

 MAXIMUM STEPSIZE WHICH MEETS STABILITY CRITERION OF THE ADVECTION TERM
 (FOR PURE FINITE-DIFFERENCE OPTION, MIXELM=0) 
 = 0.8308    (WHEN MIN. R.F.=1)  AT K=   3, I=   2, J=  30
>>>>>>> Stashed changes


 TOTAL NUMBER OF POINT SOURCES/SINKS PRESENT IN THE FLOW MODEL =   240

 MAXIMUM STEPSIZE WHICH MEETS STABILITY CRITERION OF THE SINK & SOURCE TERM
 = 0.1000E+31(WHEN MIN. R.F.=1)  AT K=   0, I=   0, J=   0

 MAXIMUM STEPSIZE WHICH MEETS STABILITY CRITERION OF THE DISPERSION TERM
<<<<<<< Updated upstream
 = 0.4102E-01(WHEN MIN. R.F.=1)  AT K=   3, I=   2, J=  31
=======
 = 0.4455E-01(WHEN MIN. R.F.=1)  AT K=   3, I=   2, J=  30
>>>>>>> Stashed changes


     1 CALLS TO GCG PACKAGE FOR TRANSPORT TIME STEP   1 IN FLOW TIME STEP  39 STRESS PERIOD   1
     5 TOTAL ITERATIONS
  MAXIMUM CONCENTRATION CHANGES FOR EACH ITERATION:
  MAX. CHANGE LAYER,ROW,COL MAX. CHANGE LAYER,ROW,COL MAX. CHANGE LAYER,ROW,COL MAX. CHANGE LAYER,ROW,COL MAX. CHANGE LAYER,ROW,COL
 ------------------------------------------------------------------------------------------------------------------------------------
<<<<<<< Updated upstream
   0.3152E-02 (  2,  1, 47)  0.1281E-03 (  3,  2, 34)  0.6041E-05 (  4,  2, 33)  0.3748E-06 (  3,  2, 31)  0.1841E-07 (  4,  3, 31)
=======
   0.4465E-02 (  2,  1, 40)  0.2320E-03 (  3,  2, 37)  0.8714E-05 (  4,  2, 37)  0.4829E-06 (  3,  2, 37)  0.1868E-07 (  4,  2, 37)

 OUTPUT CONTROL FOR STRESS PERIOD    1   TIME STEP  39
    SAVE HEAD FOR ALL LAYERS
    SAVE BUDGET
 UBDSV2 SAVING "   CONSTANT HEAD" ON UNIT  53 AT TIME STEP 39, STRESS PERIOD   1
 UBDSV1 SAVING "FLOW RIGHT FACE " ON UNIT  53 AT TIME STEP 39, STRESS PERIOD   1
 UBDSV1 SAVING "FLOW FRONT FACE " ON UNIT  53 AT TIME STEP 39, STRESS PERIOD   1
 UBDSV1 SAVING "FLOW LOWER FACE " ON UNIT  53 AT TIME STEP 39, STRESS PERIOD   1
 UBDSV1 SAVING "            DCDT" ON UNIT  53 AT TIME STEP 39, STRESS PERIOD   1
>>>>>>> Stashed changes

 HEAD WILL BE SAVED ON UNIT   51 AT END OF TIME STEP  39, STRESS PERIOD    1


                                          ================================================
                                                         FROM TIME =  0.39000     TO   0.40000    

 
 SOLVING FOR HEAD 
 FLOW MODEL IS TRANSIENT
 FLOW MODEL CONTAINS CONSTANT-HEAD CELLS


 MAXIMUM STEPSIZE DURING WHICH ANY PARTICLE CANNOT MOVE MORE THAN ONE CELL
<<<<<<< Updated upstream
 =  1.088    (WHEN MIN. R.F.=1)  AT K=   3, I=   2, J=  29

 MAXIMUM STEPSIZE WHICH MEETS STABILITY CRITERION OF THE ADVECTION TERM
 (FOR PURE FINITE-DIFFERENCE OPTION, MIXELM=0) 
 = 0.7546    (WHEN MIN. R.F.=1)  AT K=   3, I=   2, J=  28
=======
 =  1.244    (WHEN MIN. R.F.=1)  AT K=   3, I=   2, J=  31

 MAXIMUM STEPSIZE WHICH MEETS STABILITY CRITERION OF THE ADVECTION TERM
 (FOR PURE FINITE-DIFFERENCE OPTION, MIXELM=0) 
 = 0.8311    (WHEN MIN. R.F.=1)  AT K=   3, I=   2, J=  30
>>>>>>> Stashed changes


 TOTAL NUMBER OF POINT SOURCES/SINKS PRESENT IN THE FLOW MODEL =   240

 MAXIMUM STEPSIZE WHICH MEETS STABILITY CRITERION OF THE SINK & SOURCE TERM
 = 0.1000E+31(WHEN MIN. R.F.=1)  AT K=   0, I=   0, J=   0

 MAXIMUM STEPSIZE WHICH MEETS STABILITY CRITERION OF THE DISPERSION TERM
<<<<<<< Updated upstream
 = 0.4103E-01(WHEN MIN. R.F.=1)  AT K=   3, I=   2, J=  31
=======
 = 0.4457E-01(WHEN MIN. R.F.=1)  AT K=   3, I=   2, J=  30
>>>>>>> Stashed changes


     1 CALLS TO GCG PACKAGE FOR TRANSPORT TIME STEP   1 IN FLOW TIME STEP  40 STRESS PERIOD   1
     5 TOTAL ITERATIONS
  MAXIMUM CONCENTRATION CHANGES FOR EACH ITERATION:
  MAX. CHANGE LAYER,ROW,COL MAX. CHANGE LAYER,ROW,COL MAX. CHANGE LAYER,ROW,COL MAX. CHANGE LAYER,ROW,COL MAX. CHANGE LAYER,ROW,COL
 ------------------------------------------------------------------------------------------------------------------------------------
<<<<<<< Updated upstream
   0.3107E-02 (  2,  1, 47)  0.1271E-03 (  3,  2, 34)  0.5987E-05 (  4,  2, 33)  0.3715E-06 (  3,  2, 31)  0.1817E-07 (  4,  3, 31)
=======
   0.4400E-02 (  2,  1, 40)  0.2297E-03 (  3,  2, 37)  0.8597E-05 (  4,  2, 37)  0.4802E-06 (  3,  2, 37)  0.1864E-07 (  4,  2, 37)

 OUTPUT CONTROL FOR STRESS PERIOD    1   TIME STEP  40
    SAVE HEAD FOR ALL LAYERS
    SAVE BUDGET
 UBDSV2 SAVING "   CONSTANT HEAD" ON UNIT  53 AT TIME STEP 40, STRESS PERIOD   1
 UBDSV1 SAVING "FLOW RIGHT FACE " ON UNIT  53 AT TIME STEP 40, STRESS PERIOD   1
 UBDSV1 SAVING "FLOW FRONT FACE " ON UNIT  53 AT TIME STEP 40, STRESS PERIOD   1
 UBDSV1 SAVING "FLOW LOWER FACE " ON UNIT  53 AT TIME STEP 40, STRESS PERIOD   1
 UBDSV1 SAVING "            DCDT" ON UNIT  53 AT TIME STEP 40, STRESS PERIOD   1
>>>>>>> Stashed changes

 HEAD WILL BE SAVED ON UNIT   51 AT END OF TIME STEP  40, STRESS PERIOD    1


                                          ================================================
                                                         FROM TIME =  0.40000     TO   0.41000    

 
 SOLVING FOR HEAD 
 FLOW MODEL IS TRANSIENT
 FLOW MODEL CONTAINS CONSTANT-HEAD CELLS


 MAXIMUM STEPSIZE DURING WHICH ANY PARTICLE CANNOT MOVE MORE THAN ONE CELL
<<<<<<< Updated upstream
 =  1.088    (WHEN MIN. R.F.=1)  AT K=   3, I=   2, J=  29

 MAXIMUM STEPSIZE WHICH MEETS STABILITY CRITERION OF THE ADVECTION TERM
 (FOR PURE FINITE-DIFFERENCE OPTION, MIXELM=0) 
 = 0.7549    (WHEN MIN. R.F.=1)  AT K=   3, I=   2, J=  28
=======
 =  1.244    (WHEN MIN. R.F.=1)  AT K=   3, I=   2, J=  31

 MAXIMUM STEPSIZE WHICH MEETS STABILITY CRITERION OF THE ADVECTION TERM
 (FOR PURE FINITE-DIFFERENCE OPTION, MIXELM=0) 
 = 0.8314    (WHEN MIN. R.F.=1)  AT K=   3, I=   2, J=  30
>>>>>>> Stashed changes


 TOTAL NUMBER OF POINT SOURCES/SINKS PRESENT IN THE FLOW MODEL =   240

 MAXIMUM STEPSIZE WHICH MEETS STABILITY CRITERION OF THE SINK & SOURCE TERM
 = 0.1000E+31(WHEN MIN. R.F.=1)  AT K=   0, I=   0, J=   0

 MAXIMUM STEPSIZE WHICH MEETS STABILITY CRITERION OF THE DISPERSION TERM
<<<<<<< Updated upstream
 = 0.4105E-01(WHEN MIN. R.F.=1)  AT K=   3, I=   2, J=  31
=======
 = 0.4458E-01(WHEN MIN. R.F.=1)  AT K=   3, I=   2, J=  30
>>>>>>> Stashed changes


     1 CALLS TO GCG PACKAGE FOR TRANSPORT TIME STEP   1 IN FLOW TIME STEP  41 STRESS PERIOD   1
     5 TOTAL ITERATIONS
  MAXIMUM CONCENTRATION CHANGES FOR EACH ITERATION:
  MAX. CHANGE LAYER,ROW,COL MAX. CHANGE LAYER,ROW,COL MAX. CHANGE LAYER,ROW,COL MAX. CHANGE LAYER,ROW,COL MAX. CHANGE LAYER,ROW,COL
 ------------------------------------------------------------------------------------------------------------------------------------
<<<<<<< Updated upstream
   0.3062E-02 (  2,  1, 47)  0.1261E-03 (  3,  2, 34)  0.5934E-05 (  4,  2, 33)  0.3683E-06 (  3,  2, 31)  0.1794E-07 (  4,  3, 31)
=======
   0.4336E-02 (  2,  1, 40)  0.2275E-03 (  3,  2, 37)  0.8483E-05 (  4,  2, 37)  0.4775E-06 (  3,  2, 37)  0.1860E-07 (  4,  2, 37)

 OUTPUT CONTROL FOR STRESS PERIOD    1   TIME STEP  41
    SAVE HEAD FOR ALL LAYERS
    SAVE BUDGET
 UBDSV2 SAVING "   CONSTANT HEAD" ON UNIT  53 AT TIME STEP 41, STRESS PERIOD   1
 UBDSV1 SAVING "FLOW RIGHT FACE " ON UNIT  53 AT TIME STEP 41, STRESS PERIOD   1
 UBDSV1 SAVING "FLOW FRONT FACE " ON UNIT  53 AT TIME STEP 41, STRESS PERIOD   1
 UBDSV1 SAVING "FLOW LOWER FACE " ON UNIT  53 AT TIME STEP 41, STRESS PERIOD   1
 UBDSV1 SAVING "            DCDT" ON UNIT  53 AT TIME STEP 41, STRESS PERIOD   1
>>>>>>> Stashed changes

 HEAD WILL BE SAVED ON UNIT   51 AT END OF TIME STEP  41, STRESS PERIOD    1


                                          ================================================
                                                         FROM TIME =  0.41000     TO   0.42000    

 
 SOLVING FOR HEAD 
 FLOW MODEL IS TRANSIENT
 FLOW MODEL CONTAINS CONSTANT-HEAD CELLS


 MAXIMUM STEPSIZE DURING WHICH ANY PARTICLE CANNOT MOVE MORE THAN ONE CELL
<<<<<<< Updated upstream
 =  1.088    (WHEN MIN. R.F.=1)  AT K=   3, I=   2, J=  29

 MAXIMUM STEPSIZE WHICH MEETS STABILITY CRITERION OF THE ADVECTION TERM
 (FOR PURE FINITE-DIFFERENCE OPTION, MIXELM=0) 
 = 0.7552    (WHEN MIN. R.F.=1)  AT K=   3, I=   2, J=  28
=======
 =  1.245    (WHEN MIN. R.F.=1)  AT K=   3, I=   2, J=  31

 MAXIMUM STEPSIZE WHICH MEETS STABILITY CRITERION OF THE ADVECTION TERM
 (FOR PURE FINITE-DIFFERENCE OPTION, MIXELM=0) 
 = 0.8317    (WHEN MIN. R.F.=1)  AT K=   3, I=   2, J=  30
>>>>>>> Stashed changes


 TOTAL NUMBER OF POINT SOURCES/SINKS PRESENT IN THE FLOW MODEL =   240

 MAXIMUM STEPSIZE WHICH MEETS STABILITY CRITERION OF THE SINK & SOURCE TERM
 = 0.1000E+31(WHEN MIN. R.F.=1)  AT K=   0, I=   0, J=   0

 MAXIMUM STEPSIZE WHICH MEETS STABILITY CRITERION OF THE DISPERSION TERM
<<<<<<< Updated upstream
 = 0.4106E-01(WHEN MIN. R.F.=1)  AT K=   3, I=   2, J=  31
=======
 = 0.4460E-01(WHEN MIN. R.F.=1)  AT K=   3, I=   2, J=  30
>>>>>>> Stashed changes


     1 CALLS TO GCG PACKAGE FOR TRANSPORT TIME STEP   1 IN FLOW TIME STEP  42 STRESS PERIOD   1
     5 TOTAL ITERATIONS
  MAXIMUM CONCENTRATION CHANGES FOR EACH ITERATION:
  MAX. CHANGE LAYER,ROW,COL MAX. CHANGE LAYER,ROW,COL MAX. CHANGE LAYER,ROW,COL MAX. CHANGE LAYER,ROW,COL MAX. CHANGE LAYER,ROW,COL
 ------------------------------------------------------------------------------------------------------------------------------------
<<<<<<< Updated upstream
   0.3019E-02 (  2,  1, 47)  0.1252E-03 (  3,  2, 34)  0.5882E-05 (  4,  2, 33)  0.3651E-06 (  3,  2, 31)  0.1771E-07 (  4,  3, 31)
=======
   0.4273E-02 (  2,  1, 40)  0.2253E-03 (  3,  2, 37)  0.8373E-05 (  4,  2, 37)  0.4747E-06 (  3,  2, 37)  0.1856E-07 (  4,  2, 37)
>>>>>>> Stashed changes

 OUTPUT CONTROL FOR STRESS PERIOD    1   TIME STEP  42
    SAVE HEAD FOR ALL LAYERS
    SAVE BUDGET
 UBDSV2 SAVING "   CONSTANT HEAD" ON UNIT  53 AT TIME STEP 42, STRESS PERIOD   1
 UBDSV1 SAVING "FLOW RIGHT FACE " ON UNIT  53 AT TIME STEP 42, STRESS PERIOD   1
 UBDSV1 SAVING "FLOW FRONT FACE " ON UNIT  53 AT TIME STEP 42, STRESS PERIOD   1
 UBDSV1 SAVING "FLOW LOWER FACE " ON UNIT  53 AT TIME STEP 42, STRESS PERIOD   1
 UBDSV1 SAVING "            DCDT" ON UNIT  53 AT TIME STEP 42, STRESS PERIOD   1

 HEAD WILL BE SAVED ON UNIT   51 AT END OF TIME STEP  42, STRESS PERIOD    1


                                          ================================================
                                                         FROM TIME =  0.42000     TO   0.43000    

 
 SOLVING FOR HEAD 
 FLOW MODEL IS TRANSIENT
 FLOW MODEL CONTAINS CONSTANT-HEAD CELLS


 MAXIMUM STEPSIZE DURING WHICH ANY PARTICLE CANNOT MOVE MORE THAN ONE CELL
<<<<<<< Updated upstream
 =  1.089    (WHEN MIN. R.F.=1)  AT K=   3, I=   2, J=  29

 MAXIMUM STEPSIZE WHICH MEETS STABILITY CRITERION OF THE ADVECTION TERM
 (FOR PURE FINITE-DIFFERENCE OPTION, MIXELM=0) 
 = 0.7555    (WHEN MIN. R.F.=1)  AT K=   3, I=   2, J=  28
=======
 =  1.245    (WHEN MIN. R.F.=1)  AT K=   3, I=   2, J=  31

 MAXIMUM STEPSIZE WHICH MEETS STABILITY CRITERION OF THE ADVECTION TERM
 (FOR PURE FINITE-DIFFERENCE OPTION, MIXELM=0) 
 = 0.8321    (WHEN MIN. R.F.=1)  AT K=   3, I=   2, J=  30
>>>>>>> Stashed changes


 TOTAL NUMBER OF POINT SOURCES/SINKS PRESENT IN THE FLOW MODEL =   240

 MAXIMUM STEPSIZE WHICH MEETS STABILITY CRITERION OF THE SINK & SOURCE TERM
 = 0.1000E+31(WHEN MIN. R.F.=1)  AT K=   0, I=   0, J=   0

 MAXIMUM STEPSIZE WHICH MEETS STABILITY CRITERION OF THE DISPERSION TERM
<<<<<<< Updated upstream
 = 0.4108E-01(WHEN MIN. R.F.=1)  AT K=   3, I=   2, J=  31
=======
 = 0.4461E-01(WHEN MIN. R.F.=1)  AT K=   3, I=   2, J=  30
>>>>>>> Stashed changes


     1 CALLS TO GCG PACKAGE FOR TRANSPORT TIME STEP   1 IN FLOW TIME STEP  43 STRESS PERIOD   1
     5 TOTAL ITERATIONS
  MAXIMUM CONCENTRATION CHANGES FOR EACH ITERATION:
  MAX. CHANGE LAYER,ROW,COL MAX. CHANGE LAYER,ROW,COL MAX. CHANGE LAYER,ROW,COL MAX. CHANGE LAYER,ROW,COL MAX. CHANGE LAYER,ROW,COL
 ------------------------------------------------------------------------------------------------------------------------------------
<<<<<<< Updated upstream
   0.2992E-02 (  2,  3, 55)  0.1242E-03 (  3,  2, 34)  0.5831E-05 (  4,  2, 33)  0.3620E-06 (  3,  2, 31)  0.1749E-07 (  4,  3, 31)
=======
   0.4212E-02 (  2,  1, 40)  0.2231E-03 (  3,  2, 37)  0.8266E-05 (  4,  2, 37)  0.4720E-06 (  3,  2, 37)  0.1851E-07 (  4,  2, 37)

 OUTPUT CONTROL FOR STRESS PERIOD    1   TIME STEP  43
    SAVE HEAD FOR ALL LAYERS
    SAVE BUDGET
 UBDSV2 SAVING "   CONSTANT HEAD" ON UNIT  53 AT TIME STEP 43, STRESS PERIOD   1
 UBDSV1 SAVING "FLOW RIGHT FACE " ON UNIT  53 AT TIME STEP 43, STRESS PERIOD   1
 UBDSV1 SAVING "FLOW FRONT FACE " ON UNIT  53 AT TIME STEP 43, STRESS PERIOD   1
 UBDSV1 SAVING "FLOW LOWER FACE " ON UNIT  53 AT TIME STEP 43, STRESS PERIOD   1
 UBDSV1 SAVING "            DCDT" ON UNIT  53 AT TIME STEP 43, STRESS PERIOD   1
>>>>>>> Stashed changes

 HEAD WILL BE SAVED ON UNIT   51 AT END OF TIME STEP  43, STRESS PERIOD    1


                                          ================================================
                                                         FROM TIME =  0.43000     TO   0.44000    

 
 SOLVING FOR HEAD 
 FLOW MODEL IS TRANSIENT
 FLOW MODEL CONTAINS CONSTANT-HEAD CELLS


 MAXIMUM STEPSIZE DURING WHICH ANY PARTICLE CANNOT MOVE MORE THAN ONE CELL
<<<<<<< Updated upstream
 =  1.089    (WHEN MIN. R.F.=1)  AT K=   3, I=   2, J=  29

 MAXIMUM STEPSIZE WHICH MEETS STABILITY CRITERION OF THE ADVECTION TERM
 (FOR PURE FINITE-DIFFERENCE OPTION, MIXELM=0) 
 = 0.7557    (WHEN MIN. R.F.=1)  AT K=   3, I=   2, J=  28
=======
 =  1.246    (WHEN MIN. R.F.=1)  AT K=   3, I=   2, J=  31

 MAXIMUM STEPSIZE WHICH MEETS STABILITY CRITERION OF THE ADVECTION TERM
 (FOR PURE FINITE-DIFFERENCE OPTION, MIXELM=0) 
 = 0.8324    (WHEN MIN. R.F.=1)  AT K=   3, I=   2, J=  30
>>>>>>> Stashed changes


 TOTAL NUMBER OF POINT SOURCES/SINKS PRESENT IN THE FLOW MODEL =   240

 MAXIMUM STEPSIZE WHICH MEETS STABILITY CRITERION OF THE SINK & SOURCE TERM
 = 0.1000E+31(WHEN MIN. R.F.=1)  AT K=   0, I=   0, J=   0

 MAXIMUM STEPSIZE WHICH MEETS STABILITY CRITERION OF THE DISPERSION TERM
<<<<<<< Updated upstream
 = 0.4109E-01(WHEN MIN. R.F.=1)  AT K=   3, I=   2, J=  31
=======
 = 0.4463E-01(WHEN MIN. R.F.=1)  AT K=   3, I=   2, J=  30
>>>>>>> Stashed changes


     1 CALLS TO GCG PACKAGE FOR TRANSPORT TIME STEP   1 IN FLOW TIME STEP  44 STRESS PERIOD   1
     5 TOTAL ITERATIONS
  MAXIMUM CONCENTRATION CHANGES FOR EACH ITERATION:
  MAX. CHANGE LAYER,ROW,COL MAX. CHANGE LAYER,ROW,COL MAX. CHANGE LAYER,ROW,COL MAX. CHANGE LAYER,ROW,COL MAX. CHANGE LAYER,ROW,COL
 ------------------------------------------------------------------------------------------------------------------------------------
<<<<<<< Updated upstream
   0.2972E-02 (  2,  3, 55)  0.1233E-03 (  3,  2, 34)  0.5781E-05 (  4,  2, 33)  0.3589E-06 (  3,  2, 31)  0.1727E-07 (  4,  3, 31)
=======
   0.4151E-02 (  2,  1, 40)  0.2210E-03 (  3,  2, 37)  0.8162E-05 (  4,  2, 37)  0.4692E-06 (  3,  2, 37)  0.1846E-07 (  4,  2, 37)

 OUTPUT CONTROL FOR STRESS PERIOD    1   TIME STEP  44
    SAVE HEAD FOR ALL LAYERS
    SAVE BUDGET
 UBDSV2 SAVING "   CONSTANT HEAD" ON UNIT  53 AT TIME STEP 44, STRESS PERIOD   1
 UBDSV1 SAVING "FLOW RIGHT FACE " ON UNIT  53 AT TIME STEP 44, STRESS PERIOD   1
 UBDSV1 SAVING "FLOW FRONT FACE " ON UNIT  53 AT TIME STEP 44, STRESS PERIOD   1
 UBDSV1 SAVING "FLOW LOWER FACE " ON UNIT  53 AT TIME STEP 44, STRESS PERIOD   1
 UBDSV1 SAVING "            DCDT" ON UNIT  53 AT TIME STEP 44, STRESS PERIOD   1
>>>>>>> Stashed changes

 HEAD WILL BE SAVED ON UNIT   51 AT END OF TIME STEP  44, STRESS PERIOD    1


                                          ================================================
                                                         FROM TIME =  0.44000     TO   0.45000    

 
 SOLVING FOR HEAD 
 FLOW MODEL IS TRANSIENT
 FLOW MODEL CONTAINS CONSTANT-HEAD CELLS


 MAXIMUM STEPSIZE DURING WHICH ANY PARTICLE CANNOT MOVE MORE THAN ONE CELL
<<<<<<< Updated upstream
 =  1.090    (WHEN MIN. R.F.=1)  AT K=   3, I=   2, J=  29

 MAXIMUM STEPSIZE WHICH MEETS STABILITY CRITERION OF THE ADVECTION TERM
 (FOR PURE FINITE-DIFFERENCE OPTION, MIXELM=0) 
 = 0.7560    (WHEN MIN. R.F.=1)  AT K=   3, I=   2, J=  28
=======
 =  1.246    (WHEN MIN. R.F.=1)  AT K=   3, I=   2, J=  31

 MAXIMUM STEPSIZE WHICH MEETS STABILITY CRITERION OF THE ADVECTION TERM
 (FOR PURE FINITE-DIFFERENCE OPTION, MIXELM=0) 
 = 0.8327    (WHEN MIN. R.F.=1)  AT K=   3, I=   2, J=  30
>>>>>>> Stashed changes


 TOTAL NUMBER OF POINT SOURCES/SINKS PRESENT IN THE FLOW MODEL =   240

 MAXIMUM STEPSIZE WHICH MEETS STABILITY CRITERION OF THE SINK & SOURCE TERM
 = 0.1000E+31(WHEN MIN. R.F.=1)  AT K=   0, I=   0, J=   0

 MAXIMUM STEPSIZE WHICH MEETS STABILITY CRITERION OF THE DISPERSION TERM
<<<<<<< Updated upstream
 = 0.4111E-01(WHEN MIN. R.F.=1)  AT K=   3, I=   2, J=  31
=======
 = 0.4464E-01(WHEN MIN. R.F.=1)  AT K=   3, I=   2, J=  30
>>>>>>> Stashed changes


     1 CALLS TO GCG PACKAGE FOR TRANSPORT TIME STEP   1 IN FLOW TIME STEP  45 STRESS PERIOD   1
     5 TOTAL ITERATIONS
  MAXIMUM CONCENTRATION CHANGES FOR EACH ITERATION:
  MAX. CHANGE LAYER,ROW,COL MAX. CHANGE LAYER,ROW,COL MAX. CHANGE LAYER,ROW,COL MAX. CHANGE LAYER,ROW,COL MAX. CHANGE LAYER,ROW,COL
 ------------------------------------------------------------------------------------------------------------------------------------
<<<<<<< Updated upstream
   0.2953E-02 (  2,  3, 55)  0.1224E-03 (  3,  2, 34)  0.5732E-05 (  4,  2, 33)  0.3558E-06 (  3,  2, 31)  0.1705E-07 (  4,  3, 31)
=======
   0.4091E-02 (  2,  1, 40)  0.2189E-03 (  3,  2, 37)  0.8061E-05 (  4,  2, 37)  0.4664E-06 (  3,  2, 37)  0.1841E-07 (  4,  2, 37)

 OUTPUT CONTROL FOR STRESS PERIOD    1   TIME STEP  45
    SAVE HEAD FOR ALL LAYERS
    SAVE BUDGET
 UBDSV2 SAVING "   CONSTANT HEAD" ON UNIT  53 AT TIME STEP 45, STRESS PERIOD   1
 UBDSV1 SAVING "FLOW RIGHT FACE " ON UNIT  53 AT TIME STEP 45, STRESS PERIOD   1
 UBDSV1 SAVING "FLOW FRONT FACE " ON UNIT  53 AT TIME STEP 45, STRESS PERIOD   1
 UBDSV1 SAVING "FLOW LOWER FACE " ON UNIT  53 AT TIME STEP 45, STRESS PERIOD   1
 UBDSV1 SAVING "            DCDT" ON UNIT  53 AT TIME STEP 45, STRESS PERIOD   1
>>>>>>> Stashed changes

 HEAD WILL BE SAVED ON UNIT   51 AT END OF TIME STEP  45, STRESS PERIOD    1


                                          ================================================
                                                         FROM TIME =  0.45000     TO   0.46000    

 
 SOLVING FOR HEAD 
 FLOW MODEL IS TRANSIENT
 FLOW MODEL CONTAINS CONSTANT-HEAD CELLS


 MAXIMUM STEPSIZE DURING WHICH ANY PARTICLE CANNOT MOVE MORE THAN ONE CELL
<<<<<<< Updated upstream
 =  1.090    (WHEN MIN. R.F.=1)  AT K=   3, I=   2, J=  29

 MAXIMUM STEPSIZE WHICH MEETS STABILITY CRITERION OF THE ADVECTION TERM
 (FOR PURE FINITE-DIFFERENCE OPTION, MIXELM=0) 
 = 0.7563    (WHEN MIN. R.F.=1)  AT K=   3, I=   2, J=  28
=======
 =  1.247    (WHEN MIN. R.F.=1)  AT K=   3, I=   2, J=  31

 MAXIMUM STEPSIZE WHICH MEETS STABILITY CRITERION OF THE ADVECTION TERM
 (FOR PURE FINITE-DIFFERENCE OPTION, MIXELM=0) 
 = 0.8331    (WHEN MIN. R.F.=1)  AT K=   3, I=   2, J=  30
>>>>>>> Stashed changes


 TOTAL NUMBER OF POINT SOURCES/SINKS PRESENT IN THE FLOW MODEL =   240

 MAXIMUM STEPSIZE WHICH MEETS STABILITY CRITERION OF THE SINK & SOURCE TERM
 = 0.1000E+31(WHEN MIN. R.F.=1)  AT K=   0, I=   0, J=   0

 MAXIMUM STEPSIZE WHICH MEETS STABILITY CRITERION OF THE DISPERSION TERM
<<<<<<< Updated upstream
 = 0.4112E-01(WHEN MIN. R.F.=1)  AT K=   3, I=   2, J=  31
=======
 = 0.4466E-01(WHEN MIN. R.F.=1)  AT K=   3, I=   2, J=  30
>>>>>>> Stashed changes


     1 CALLS TO GCG PACKAGE FOR TRANSPORT TIME STEP   1 IN FLOW TIME STEP  46 STRESS PERIOD   1
     5 TOTAL ITERATIONS
  MAXIMUM CONCENTRATION CHANGES FOR EACH ITERATION:
  MAX. CHANGE LAYER,ROW,COL MAX. CHANGE LAYER,ROW,COL MAX. CHANGE LAYER,ROW,COL MAX. CHANGE LAYER,ROW,COL MAX. CHANGE LAYER,ROW,COL
 ------------------------------------------------------------------------------------------------------------------------------------
<<<<<<< Updated upstream
   0.2934E-02 (  2,  3, 55)  0.1215E-03 (  3,  2, 34)  0.5684E-05 (  4,  2, 33)  0.3529E-06 (  3,  2, 31)  0.1684E-07 (  4,  3, 31)
=======
   0.4033E-02 (  2,  1, 40)  0.2168E-03 (  3,  2, 37)  0.7962E-05 (  4,  2, 37)  0.4637E-06 (  3,  2, 37)  0.1836E-07 (  4,  2, 37)
>>>>>>> Stashed changes

 OUTPUT CONTROL FOR STRESS PERIOD    1   TIME STEP  46
    SAVE HEAD FOR ALL LAYERS
    SAVE BUDGET
 UBDSV2 SAVING "   CONSTANT HEAD" ON UNIT  53 AT TIME STEP 46, STRESS PERIOD   1
 UBDSV1 SAVING "FLOW RIGHT FACE " ON UNIT  53 AT TIME STEP 46, STRESS PERIOD   1
 UBDSV1 SAVING "FLOW FRONT FACE " ON UNIT  53 AT TIME STEP 46, STRESS PERIOD   1
 UBDSV1 SAVING "FLOW LOWER FACE " ON UNIT  53 AT TIME STEP 46, STRESS PERIOD   1
 UBDSV1 SAVING "            DCDT" ON UNIT  53 AT TIME STEP 46, STRESS PERIOD   1

 HEAD WILL BE SAVED ON UNIT   51 AT END OF TIME STEP  46, STRESS PERIOD    1


                                          ================================================
                                                         FROM TIME =  0.46000     TO   0.47000    

 
 SOLVING FOR HEAD 
 FLOW MODEL IS TRANSIENT
 FLOW MODEL CONTAINS CONSTANT-HEAD CELLS


 MAXIMUM STEPSIZE DURING WHICH ANY PARTICLE CANNOT MOVE MORE THAN ONE CELL
<<<<<<< Updated upstream
 =  1.090    (WHEN MIN. R.F.=1)  AT K=   3, I=   2, J=  29

 MAXIMUM STEPSIZE WHICH MEETS STABILITY CRITERION OF THE ADVECTION TERM
 (FOR PURE FINITE-DIFFERENCE OPTION, MIXELM=0) 
 = 0.7566    (WHEN MIN. R.F.=1)  AT K=   3, I=   2, J=  28
=======
 =  1.247    (WHEN MIN. R.F.=1)  AT K=   3, I=   2, J=  31

 MAXIMUM STEPSIZE WHICH MEETS STABILITY CRITERION OF THE ADVECTION TERM
 (FOR PURE FINITE-DIFFERENCE OPTION, MIXELM=0) 
 = 0.8334    (WHEN MIN. R.F.=1)  AT K=   3, I=   2, J=  30
>>>>>>> Stashed changes


 TOTAL NUMBER OF POINT SOURCES/SINKS PRESENT IN THE FLOW MODEL =   240

 MAXIMUM STEPSIZE WHICH MEETS STABILITY CRITERION OF THE SINK & SOURCE TERM
 = 0.1000E+31(WHEN MIN. R.F.=1)  AT K=   0, I=   0, J=   0

 MAXIMUM STEPSIZE WHICH MEETS STABILITY CRITERION OF THE DISPERSION TERM
<<<<<<< Updated upstream
 = 0.4114E-01(WHEN MIN. R.F.=1)  AT K=   3, I=   2, J=  31
=======
 = 0.4468E-01(WHEN MIN. R.F.=1)  AT K=   3, I=   2, J=  30
>>>>>>> Stashed changes


     1 CALLS TO GCG PACKAGE FOR TRANSPORT TIME STEP   1 IN FLOW TIME STEP  47 STRESS PERIOD   1
     5 TOTAL ITERATIONS
  MAXIMUM CONCENTRATION CHANGES FOR EACH ITERATION:
  MAX. CHANGE LAYER,ROW,COL MAX. CHANGE LAYER,ROW,COL MAX. CHANGE LAYER,ROW,COL MAX. CHANGE LAYER,ROW,COL MAX. CHANGE LAYER,ROW,COL
 ------------------------------------------------------------------------------------------------------------------------------------
<<<<<<< Updated upstream
   0.2914E-02 (  2,  3, 55)  0.1206E-03 (  3,  2, 34)  0.5636E-05 (  4,  2, 33)  0.3499E-06 (  3,  2, 31)  0.1664E-07 (  4,  3, 31)
=======
   0.3976E-02 (  2,  1, 41)  0.2148E-03 (  3,  2, 37)  0.7866E-05 (  4,  2, 37)  0.4609E-06 (  3,  2, 37)  0.1830E-07 (  4,  2, 37)

 OUTPUT CONTROL FOR STRESS PERIOD    1   TIME STEP  47
    SAVE HEAD FOR ALL LAYERS
    SAVE BUDGET
 UBDSV2 SAVING "   CONSTANT HEAD" ON UNIT  53 AT TIME STEP 47, STRESS PERIOD   1
 UBDSV1 SAVING "FLOW RIGHT FACE " ON UNIT  53 AT TIME STEP 47, STRESS PERIOD   1
 UBDSV1 SAVING "FLOW FRONT FACE " ON UNIT  53 AT TIME STEP 47, STRESS PERIOD   1
 UBDSV1 SAVING "FLOW LOWER FACE " ON UNIT  53 AT TIME STEP 47, STRESS PERIOD   1
 UBDSV1 SAVING "            DCDT" ON UNIT  53 AT TIME STEP 47, STRESS PERIOD   1
>>>>>>> Stashed changes

 HEAD WILL BE SAVED ON UNIT   51 AT END OF TIME STEP  47, STRESS PERIOD    1


                                          ================================================
                                                         FROM TIME =  0.47000     TO   0.48000    

 
 SOLVING FOR HEAD 
 FLOW MODEL IS TRANSIENT
 FLOW MODEL CONTAINS CONSTANT-HEAD CELLS


 MAXIMUM STEPSIZE DURING WHICH ANY PARTICLE CANNOT MOVE MORE THAN ONE CELL
<<<<<<< Updated upstream
 =  1.091    (WHEN MIN. R.F.=1)  AT K=   3, I=   2, J=  29

 MAXIMUM STEPSIZE WHICH MEETS STABILITY CRITERION OF THE ADVECTION TERM
 (FOR PURE FINITE-DIFFERENCE OPTION, MIXELM=0) 
 = 0.7568    (WHEN MIN. R.F.=1)  AT K=   3, I=   2, J=  28
=======
 =  1.248    (WHEN MIN. R.F.=1)  AT K=   3, I=   2, J=  31

 MAXIMUM STEPSIZE WHICH MEETS STABILITY CRITERION OF THE ADVECTION TERM
 (FOR PURE FINITE-DIFFERENCE OPTION, MIXELM=0) 
 = 0.8337    (WHEN MIN. R.F.=1)  AT K=   3, I=   2, J=  30
>>>>>>> Stashed changes


 TOTAL NUMBER OF POINT SOURCES/SINKS PRESENT IN THE FLOW MODEL =   240

 MAXIMUM STEPSIZE WHICH MEETS STABILITY CRITERION OF THE SINK & SOURCE TERM
 = 0.1000E+31(WHEN MIN. R.F.=1)  AT K=   0, I=   0, J=   0

 MAXIMUM STEPSIZE WHICH MEETS STABILITY CRITERION OF THE DISPERSION TERM
<<<<<<< Updated upstream
 = 0.4115E-01(WHEN MIN. R.F.=1)  AT K=   3, I=   2, J=  31
=======
 = 0.4469E-01(WHEN MIN. R.F.=1)  AT K=   3, I=   2, J=  30
>>>>>>> Stashed changes


     1 CALLS TO GCG PACKAGE FOR TRANSPORT TIME STEP   1 IN FLOW TIME STEP  48 STRESS PERIOD   1
     5 TOTAL ITERATIONS
  MAXIMUM CONCENTRATION CHANGES FOR EACH ITERATION:
  MAX. CHANGE LAYER,ROW,COL MAX. CHANGE LAYER,ROW,COL MAX. CHANGE LAYER,ROW,COL MAX. CHANGE LAYER,ROW,COL MAX. CHANGE LAYER,ROW,COL
 ------------------------------------------------------------------------------------------------------------------------------------
<<<<<<< Updated upstream
   0.2895E-02 (  2,  3, 55)  0.1197E-03 (  3,  2, 34)  0.5590E-05 (  4,  2, 33)  0.3471E-06 (  3,  2, 31)  0.1644E-07 (  4,  3, 31)
=======
   0.3922E-02 (  2,  1, 41)  0.2128E-03 (  3,  2, 37)  0.7773E-05 (  4,  2, 37)  0.4581E-06 (  3,  2, 37)  0.1824E-07 (  4,  2, 37)

 OUTPUT CONTROL FOR STRESS PERIOD    1   TIME STEP  48
    SAVE HEAD FOR ALL LAYERS
    SAVE BUDGET
 UBDSV2 SAVING "   CONSTANT HEAD" ON UNIT  53 AT TIME STEP 48, STRESS PERIOD   1
 UBDSV1 SAVING "FLOW RIGHT FACE " ON UNIT  53 AT TIME STEP 48, STRESS PERIOD   1
 UBDSV1 SAVING "FLOW FRONT FACE " ON UNIT  53 AT TIME STEP 48, STRESS PERIOD   1
 UBDSV1 SAVING "FLOW LOWER FACE " ON UNIT  53 AT TIME STEP 48, STRESS PERIOD   1
 UBDSV1 SAVING "            DCDT" ON UNIT  53 AT TIME STEP 48, STRESS PERIOD   1
>>>>>>> Stashed changes

 HEAD WILL BE SAVED ON UNIT   51 AT END OF TIME STEP  48, STRESS PERIOD    1


                                          ================================================
                                                         FROM TIME =  0.48000     TO   0.49000    

 
 SOLVING FOR HEAD 
 FLOW MODEL IS TRANSIENT
 FLOW MODEL CONTAINS CONSTANT-HEAD CELLS


 MAXIMUM STEPSIZE DURING WHICH ANY PARTICLE CANNOT MOVE MORE THAN ONE CELL
<<<<<<< Updated upstream
 =  1.091    (WHEN MIN. R.F.=1)  AT K=   3, I=   2, J=  29

 MAXIMUM STEPSIZE WHICH MEETS STABILITY CRITERION OF THE ADVECTION TERM
 (FOR PURE FINITE-DIFFERENCE OPTION, MIXELM=0) 
 = 0.7571    (WHEN MIN. R.F.=1)  AT K=   3, I=   2, J=  28
=======
 =  1.248    (WHEN MIN. R.F.=1)  AT K=   3, I=   2, J=  31

 MAXIMUM STEPSIZE WHICH MEETS STABILITY CRITERION OF THE ADVECTION TERM
 (FOR PURE FINITE-DIFFERENCE OPTION, MIXELM=0) 
 = 0.8340    (WHEN MIN. R.F.=1)  AT K=   3, I=   2, J=  30
>>>>>>> Stashed changes


 TOTAL NUMBER OF POINT SOURCES/SINKS PRESENT IN THE FLOW MODEL =   240

 MAXIMUM STEPSIZE WHICH MEETS STABILITY CRITERION OF THE SINK & SOURCE TERM
 = 0.1000E+31(WHEN MIN. R.F.=1)  AT K=   0, I=   0, J=   0

 MAXIMUM STEPSIZE WHICH MEETS STABILITY CRITERION OF THE DISPERSION TERM
<<<<<<< Updated upstream
 = 0.4117E-01(WHEN MIN. R.F.=1)  AT K=   3, I=   2, J=  31
=======
 = 0.4471E-01(WHEN MIN. R.F.=1)  AT K=   3, I=   2, J=  30
>>>>>>> Stashed changes


     1 CALLS TO GCG PACKAGE FOR TRANSPORT TIME STEP   1 IN FLOW TIME STEP  49 STRESS PERIOD   1
     5 TOTAL ITERATIONS
  MAXIMUM CONCENTRATION CHANGES FOR EACH ITERATION:
  MAX. CHANGE LAYER,ROW,COL MAX. CHANGE LAYER,ROW,COL MAX. CHANGE LAYER,ROW,COL MAX. CHANGE LAYER,ROW,COL MAX. CHANGE LAYER,ROW,COL
 ------------------------------------------------------------------------------------------------------------------------------------
<<<<<<< Updated upstream
   0.2876E-02 (  2,  3, 55)  0.1188E-03 (  3,  2, 34)  0.5545E-05 (  4,  2, 33)  0.3442E-06 (  3,  2, 31)  0.1624E-07 (  4,  3, 31)
=======
   0.3868E-02 (  2,  1, 41)  0.2109E-03 (  3,  2, 37)  0.7683E-05 (  4,  2, 37)  0.4553E-06 (  3,  2, 37)  0.1818E-07 (  4,  2, 37)

 OUTPUT CONTROL FOR STRESS PERIOD    1   TIME STEP  49
    SAVE HEAD FOR ALL LAYERS
    SAVE BUDGET
 UBDSV2 SAVING "   CONSTANT HEAD" ON UNIT  53 AT TIME STEP 49, STRESS PERIOD   1
 UBDSV1 SAVING "FLOW RIGHT FACE " ON UNIT  53 AT TIME STEP 49, STRESS PERIOD   1
 UBDSV1 SAVING "FLOW FRONT FACE " ON UNIT  53 AT TIME STEP 49, STRESS PERIOD   1
 UBDSV1 SAVING "FLOW LOWER FACE " ON UNIT  53 AT TIME STEP 49, STRESS PERIOD   1
 UBDSV1 SAVING "            DCDT" ON UNIT  53 AT TIME STEP 49, STRESS PERIOD   1
>>>>>>> Stashed changes

 HEAD WILL BE SAVED ON UNIT   51 AT END OF TIME STEP  49, STRESS PERIOD    1


                                          ================================================
                                                         FROM TIME =  0.49000     TO   0.50000    

 
 SOLVING FOR HEAD 
 FLOW MODEL IS TRANSIENT
 FLOW MODEL CONTAINS CONSTANT-HEAD CELLS


 MAXIMUM STEPSIZE DURING WHICH ANY PARTICLE CANNOT MOVE MORE THAN ONE CELL
<<<<<<< Updated upstream
 =  1.092    (WHEN MIN. R.F.=1)  AT K=   3, I=   2, J=  29

 MAXIMUM STEPSIZE WHICH MEETS STABILITY CRITERION OF THE ADVECTION TERM
 (FOR PURE FINITE-DIFFERENCE OPTION, MIXELM=0) 
 = 0.7574    (WHEN MIN. R.F.=1)  AT K=   3, I=   2, J=  28
=======
 =  1.249    (WHEN MIN. R.F.=1)  AT K=   3, I=   2, J=  31

 MAXIMUM STEPSIZE WHICH MEETS STABILITY CRITERION OF THE ADVECTION TERM
 (FOR PURE FINITE-DIFFERENCE OPTION, MIXELM=0) 
 = 0.8343    (WHEN MIN. R.F.=1)  AT K=   3, I=   2, J=  30
>>>>>>> Stashed changes


 TOTAL NUMBER OF POINT SOURCES/SINKS PRESENT IN THE FLOW MODEL =   240

 MAXIMUM STEPSIZE WHICH MEETS STABILITY CRITERION OF THE SINK & SOURCE TERM
 = 0.1000E+31(WHEN MIN. R.F.=1)  AT K=   0, I=   0, J=   0

 MAXIMUM STEPSIZE WHICH MEETS STABILITY CRITERION OF THE DISPERSION TERM
<<<<<<< Updated upstream
 = 0.4119E-01(WHEN MIN. R.F.=1)  AT K=   3, I=   2, J=  31
=======
 = 0.4472E-01(WHEN MIN. R.F.=1)  AT K=   3, I=   2, J=  30
>>>>>>> Stashed changes


     1 CALLS TO GCG PACKAGE FOR TRANSPORT TIME STEP   1 IN FLOW TIME STEP  50 STRESS PERIOD   1
     5 TOTAL ITERATIONS
  MAXIMUM CONCENTRATION CHANGES FOR EACH ITERATION:
  MAX. CHANGE LAYER,ROW,COL MAX. CHANGE LAYER,ROW,COL MAX. CHANGE LAYER,ROW,COL MAX. CHANGE LAYER,ROW,COL MAX. CHANGE LAYER,ROW,COL
 ------------------------------------------------------------------------------------------------------------------------------------
<<<<<<< Updated upstream
   0.2857E-02 (  2,  3, 55)  0.1180E-03 (  3,  2, 34)  0.5500E-05 (  4,  2, 33)  0.3415E-06 (  3,  2, 31)  0.1605E-07 (  4,  3, 31)
=======
   0.3816E-02 (  2,  1, 41)  0.2089E-03 (  3,  2, 37)  0.7594E-05 (  4,  2, 37)  0.4525E-06 (  3,  2, 37)  0.1812E-07 (  4,  2, 37)
>>>>>>> Stashed changes

 OUTPUT CONTROL FOR STRESS PERIOD    1   TIME STEP  50
    SAVE HEAD FOR ALL LAYERS
    SAVE BUDGET
 UBDSV2 SAVING "   CONSTANT HEAD" ON UNIT  53 AT TIME STEP 50, STRESS PERIOD   1
 UBDSV1 SAVING "FLOW RIGHT FACE " ON UNIT  53 AT TIME STEP 50, STRESS PERIOD   1
 UBDSV1 SAVING "FLOW FRONT FACE " ON UNIT  53 AT TIME STEP 50, STRESS PERIOD   1
 UBDSV1 SAVING "FLOW LOWER FACE " ON UNIT  53 AT TIME STEP 50, STRESS PERIOD   1
 UBDSV1 SAVING "            DCDT" ON UNIT  53 AT TIME STEP 50, STRESS PERIOD   1

 HEAD WILL BE SAVED ON UNIT   51 AT END OF TIME STEP  50, STRESS PERIOD    1


                                          ================================================
                                                         FROM TIME =  0.50000     TO   0.51000    

 
 SOLVING FOR HEAD 
 FLOW MODEL IS TRANSIENT
 FLOW MODEL CONTAINS CONSTANT-HEAD CELLS


 MAXIMUM STEPSIZE DURING WHICH ANY PARTICLE CANNOT MOVE MORE THAN ONE CELL
<<<<<<< Updated upstream
 =  1.092    (WHEN MIN. R.F.=1)  AT K=   3, I=   2, J=  29

 MAXIMUM STEPSIZE WHICH MEETS STABILITY CRITERION OF THE ADVECTION TERM
 (FOR PURE FINITE-DIFFERENCE OPTION, MIXELM=0) 
 = 0.7577    (WHEN MIN. R.F.=1)  AT K=   3, I=   2, J=  28
=======
 =  1.249    (WHEN MIN. R.F.=1)  AT K=   3, I=   2, J=  31

 MAXIMUM STEPSIZE WHICH MEETS STABILITY CRITERION OF THE ADVECTION TERM
 (FOR PURE FINITE-DIFFERENCE OPTION, MIXELM=0) 
 = 0.8347    (WHEN MIN. R.F.=1)  AT K=   3, I=   2, J=  30
>>>>>>> Stashed changes


 TOTAL NUMBER OF POINT SOURCES/SINKS PRESENT IN THE FLOW MODEL =   240

 MAXIMUM STEPSIZE WHICH MEETS STABILITY CRITERION OF THE SINK & SOURCE TERM
 = 0.1000E+31(WHEN MIN. R.F.=1)  AT K=   0, I=   0, J=   0

 MAXIMUM STEPSIZE WHICH MEETS STABILITY CRITERION OF THE DISPERSION TERM
<<<<<<< Updated upstream
 = 0.4120E-01(WHEN MIN. R.F.=1)  AT K=   3, I=   2, J=  31
=======
 = 0.4474E-01(WHEN MIN. R.F.=1)  AT K=   3, I=   2, J=  30
>>>>>>> Stashed changes


     1 CALLS TO GCG PACKAGE FOR TRANSPORT TIME STEP   1 IN FLOW TIME STEP  51 STRESS PERIOD   1
     5 TOTAL ITERATIONS
  MAXIMUM CONCENTRATION CHANGES FOR EACH ITERATION:
  MAX. CHANGE LAYER,ROW,COL MAX. CHANGE LAYER,ROW,COL MAX. CHANGE LAYER,ROW,COL MAX. CHANGE LAYER,ROW,COL MAX. CHANGE LAYER,ROW,COL
 ------------------------------------------------------------------------------------------------------------------------------------
<<<<<<< Updated upstream
   0.2837E-02 (  2,  3, 55)  0.1171E-03 (  3,  2, 34)  0.5456E-05 (  4,  2, 33)  0.3387E-06 (  3,  2, 31)  0.1586E-07 (  4,  3, 31)
=======
   0.3764E-02 (  2,  1, 41)  0.2071E-03 (  3,  2, 37)  0.7508E-05 (  4,  2, 37)  0.4498E-06 (  3,  2, 37)  0.1805E-07 (  4,  2, 37)

 OUTPUT CONTROL FOR STRESS PERIOD    1   TIME STEP  51
    SAVE HEAD FOR ALL LAYERS
    SAVE BUDGET
 UBDSV2 SAVING "   CONSTANT HEAD" ON UNIT  53 AT TIME STEP 51, STRESS PERIOD   1
 UBDSV1 SAVING "FLOW RIGHT FACE " ON UNIT  53 AT TIME STEP 51, STRESS PERIOD   1
 UBDSV1 SAVING "FLOW FRONT FACE " ON UNIT  53 AT TIME STEP 51, STRESS PERIOD   1
 UBDSV1 SAVING "FLOW LOWER FACE " ON UNIT  53 AT TIME STEP 51, STRESS PERIOD   1
 UBDSV1 SAVING "            DCDT" ON UNIT  53 AT TIME STEP 51, STRESS PERIOD   1
>>>>>>> Stashed changes

 HEAD WILL BE SAVED ON UNIT   51 AT END OF TIME STEP  51, STRESS PERIOD    1


                                          ================================================
                                                         FROM TIME =  0.51000     TO   0.52000    

 
 SOLVING FOR HEAD 
 FLOW MODEL IS TRANSIENT
 FLOW MODEL CONTAINS CONSTANT-HEAD CELLS


 MAXIMUM STEPSIZE DURING WHICH ANY PARTICLE CANNOT MOVE MORE THAN ONE CELL
<<<<<<< Updated upstream
 =  1.092    (WHEN MIN. R.F.=1)  AT K=   3, I=   2, J=  29

 MAXIMUM STEPSIZE WHICH MEETS STABILITY CRITERION OF THE ADVECTION TERM
 (FOR PURE FINITE-DIFFERENCE OPTION, MIXELM=0) 
 = 0.7579    (WHEN MIN. R.F.=1)  AT K=   3, I=   2, J=  28
=======
 =  1.250    (WHEN MIN. R.F.=1)  AT K=   3, I=   2, J=  31

 MAXIMUM STEPSIZE WHICH MEETS STABILITY CRITERION OF THE ADVECTION TERM
 (FOR PURE FINITE-DIFFERENCE OPTION, MIXELM=0) 
 = 0.8350    (WHEN MIN. R.F.=1)  AT K=   3, I=   2, J=  30
>>>>>>> Stashed changes


 TOTAL NUMBER OF POINT SOURCES/SINKS PRESENT IN THE FLOW MODEL =   240

 MAXIMUM STEPSIZE WHICH MEETS STABILITY CRITERION OF THE SINK & SOURCE TERM
 = 0.1000E+31(WHEN MIN. R.F.=1)  AT K=   0, I=   0, J=   0

 MAXIMUM STEPSIZE WHICH MEETS STABILITY CRITERION OF THE DISPERSION TERM
<<<<<<< Updated upstream
 = 0.4122E-01(WHEN MIN. R.F.=1)  AT K=   3, I=   2, J=  31
=======
 = 0.4476E-01(WHEN MIN. R.F.=1)  AT K=   3, I=   2, J=  30
>>>>>>> Stashed changes


     1 CALLS TO GCG PACKAGE FOR TRANSPORT TIME STEP   1 IN FLOW TIME STEP  52 STRESS PERIOD   1
     5 TOTAL ITERATIONS
  MAXIMUM CONCENTRATION CHANGES FOR EACH ITERATION:
  MAX. CHANGE LAYER,ROW,COL MAX. CHANGE LAYER,ROW,COL MAX. CHANGE LAYER,ROW,COL MAX. CHANGE LAYER,ROW,COL MAX. CHANGE LAYER,ROW,COL
 ------------------------------------------------------------------------------------------------------------------------------------
<<<<<<< Updated upstream
   0.2819E-02 (  2,  3, 56)  0.1163E-03 (  3,  2, 34)  0.5414E-05 (  4,  2, 33)  0.3361E-06 (  3,  2, 31)  0.1568E-07 (  4,  3, 31)
=======
   0.3713E-02 (  2,  1, 41)  0.2052E-03 (  3,  2, 37)  0.7425E-05 (  4,  2, 37)  0.4470E-06 (  3,  2, 37)  0.1798E-07 (  4,  2, 37)

 OUTPUT CONTROL FOR STRESS PERIOD    1   TIME STEP  52
    SAVE HEAD FOR ALL LAYERS
    SAVE BUDGET
 UBDSV2 SAVING "   CONSTANT HEAD" ON UNIT  53 AT TIME STEP 52, STRESS PERIOD   1
 UBDSV1 SAVING "FLOW RIGHT FACE " ON UNIT  53 AT TIME STEP 52, STRESS PERIOD   1
 UBDSV1 SAVING "FLOW FRONT FACE " ON UNIT  53 AT TIME STEP 52, STRESS PERIOD   1
 UBDSV1 SAVING "FLOW LOWER FACE " ON UNIT  53 AT TIME STEP 52, STRESS PERIOD   1
 UBDSV1 SAVING "            DCDT" ON UNIT  53 AT TIME STEP 52, STRESS PERIOD   1
>>>>>>> Stashed changes

 HEAD WILL BE SAVED ON UNIT   51 AT END OF TIME STEP  52, STRESS PERIOD    1


                                          ================================================
                                                         FROM TIME =  0.52000     TO   0.53000    

 
 SOLVING FOR HEAD 
 FLOW MODEL IS TRANSIENT
 FLOW MODEL CONTAINS CONSTANT-HEAD CELLS


 MAXIMUM STEPSIZE DURING WHICH ANY PARTICLE CANNOT MOVE MORE THAN ONE CELL
<<<<<<< Updated upstream
 =  1.093    (WHEN MIN. R.F.=1)  AT K=   3, I=   2, J=  29

 MAXIMUM STEPSIZE WHICH MEETS STABILITY CRITERION OF THE ADVECTION TERM
 (FOR PURE FINITE-DIFFERENCE OPTION, MIXELM=0) 
 = 0.7582    (WHEN MIN. R.F.=1)  AT K=   3, I=   2, J=  28
=======
 =  1.250    (WHEN MIN. R.F.=1)  AT K=   3, I=   2, J=  31

 MAXIMUM STEPSIZE WHICH MEETS STABILITY CRITERION OF THE ADVECTION TERM
 (FOR PURE FINITE-DIFFERENCE OPTION, MIXELM=0) 
 = 0.8353    (WHEN MIN. R.F.=1)  AT K=   3, I=   2, J=  30
>>>>>>> Stashed changes


 TOTAL NUMBER OF POINT SOURCES/SINKS PRESENT IN THE FLOW MODEL =   240

 MAXIMUM STEPSIZE WHICH MEETS STABILITY CRITERION OF THE SINK & SOURCE TERM
 = 0.1000E+31(WHEN MIN. R.F.=1)  AT K=   0, I=   0, J=   0

 MAXIMUM STEPSIZE WHICH MEETS STABILITY CRITERION OF THE DISPERSION TERM
<<<<<<< Updated upstream
 = 0.4123E-01(WHEN MIN. R.F.=1)  AT K=   3, I=   2, J=  31
=======
 = 0.4477E-01(WHEN MIN. R.F.=1)  AT K=   3, I=   2, J=  30
>>>>>>> Stashed changes


     1 CALLS TO GCG PACKAGE FOR TRANSPORT TIME STEP   1 IN FLOW TIME STEP  53 STRESS PERIOD   1
     5 TOTAL ITERATIONS
  MAXIMUM CONCENTRATION CHANGES FOR EACH ITERATION:
  MAX. CHANGE LAYER,ROW,COL MAX. CHANGE LAYER,ROW,COL MAX. CHANGE LAYER,ROW,COL MAX. CHANGE LAYER,ROW,COL MAX. CHANGE LAYER,ROW,COL
 ------------------------------------------------------------------------------------------------------------------------------------
<<<<<<< Updated upstream
   0.2800E-02 (  2,  3, 56)  0.1154E-03 (  3,  2, 34)  0.5372E-05 (  4,  2, 33)  0.3334E-06 (  3,  2, 31)  0.1550E-07 (  4,  3, 31)
=======
   0.3663E-02 (  2,  1, 41)  0.2034E-03 (  3,  2, 37)  0.7343E-05 (  4,  2, 37)  0.4442E-06 (  3,  2, 37)  0.1791E-07 (  4,  2, 37)

 OUTPUT CONTROL FOR STRESS PERIOD    1   TIME STEP  53
    SAVE HEAD FOR ALL LAYERS
    SAVE BUDGET
 UBDSV2 SAVING "   CONSTANT HEAD" ON UNIT  53 AT TIME STEP 53, STRESS PERIOD   1
 UBDSV1 SAVING "FLOW RIGHT FACE " ON UNIT  53 AT TIME STEP 53, STRESS PERIOD   1
 UBDSV1 SAVING "FLOW FRONT FACE " ON UNIT  53 AT TIME STEP 53, STRESS PERIOD   1
 UBDSV1 SAVING "FLOW LOWER FACE " ON UNIT  53 AT TIME STEP 53, STRESS PERIOD   1
 UBDSV1 SAVING "            DCDT" ON UNIT  53 AT TIME STEP 53, STRESS PERIOD   1
>>>>>>> Stashed changes

 HEAD WILL BE SAVED ON UNIT   51 AT END OF TIME STEP  53, STRESS PERIOD    1


                                          ================================================
                                                         FROM TIME =  0.53000     TO   0.54000    

 
 SOLVING FOR HEAD 
 FLOW MODEL IS TRANSIENT
 FLOW MODEL CONTAINS CONSTANT-HEAD CELLS


 MAXIMUM STEPSIZE DURING WHICH ANY PARTICLE CANNOT MOVE MORE THAN ONE CELL
<<<<<<< Updated upstream
 =  1.093    (WHEN MIN. R.F.=1)  AT K=   3, I=   2, J=  29

 MAXIMUM STEPSIZE WHICH MEETS STABILITY CRITERION OF THE ADVECTION TERM
 (FOR PURE FINITE-DIFFERENCE OPTION, MIXELM=0) 
 = 0.7585    (WHEN MIN. R.F.=1)  AT K=   3, I=   2, J=  28
=======
 =  1.250    (WHEN MIN. R.F.=1)  AT K=   3, I=   2, J=  31

 MAXIMUM STEPSIZE WHICH MEETS STABILITY CRITERION OF THE ADVECTION TERM
 (FOR PURE FINITE-DIFFERENCE OPTION, MIXELM=0) 
 = 0.8356    (WHEN MIN. R.F.=1)  AT K=   3, I=   2, J=  30
>>>>>>> Stashed changes


 TOTAL NUMBER OF POINT SOURCES/SINKS PRESENT IN THE FLOW MODEL =   240

 MAXIMUM STEPSIZE WHICH MEETS STABILITY CRITERION OF THE SINK & SOURCE TERM
 = 0.1000E+31(WHEN MIN. R.F.=1)  AT K=   0, I=   0, J=   0

 MAXIMUM STEPSIZE WHICH MEETS STABILITY CRITERION OF THE DISPERSION TERM
<<<<<<< Updated upstream
 = 0.4125E-01(WHEN MIN. R.F.=1)  AT K=   3, I=   2, J=  31
=======
 = 0.4479E-01(WHEN MIN. R.F.=1)  AT K=   3, I=   2, J=  30
>>>>>>> Stashed changes


     1 CALLS TO GCG PACKAGE FOR TRANSPORT TIME STEP   1 IN FLOW TIME STEP  54 STRESS PERIOD   1
     5 TOTAL ITERATIONS
  MAXIMUM CONCENTRATION CHANGES FOR EACH ITERATION:
  MAX. CHANGE LAYER,ROW,COL MAX. CHANGE LAYER,ROW,COL MAX. CHANGE LAYER,ROW,COL MAX. CHANGE LAYER,ROW,COL MAX. CHANGE LAYER,ROW,COL
 ------------------------------------------------------------------------------------------------------------------------------------
<<<<<<< Updated upstream
   0.2782E-02 (  2,  3, 56)  0.1146E-03 (  3,  2, 34)  0.5330E-05 (  4,  2, 33)  0.3308E-06 (  3,  2, 31)  0.1533E-07 (  4,  3, 31)
=======
   0.3613E-02 (  2,  1, 41)  0.2016E-03 (  3,  2, 37)  0.7264E-05 (  4,  2, 37)  0.4414E-06 (  3,  2, 37)  0.1784E-07 (  4,  2, 37)
>>>>>>> Stashed changes

 OUTPUT CONTROL FOR STRESS PERIOD    1   TIME STEP  54
    SAVE HEAD FOR ALL LAYERS
    SAVE BUDGET
 UBDSV2 SAVING "   CONSTANT HEAD" ON UNIT  53 AT TIME STEP 54, STRESS PERIOD   1
 UBDSV1 SAVING "FLOW RIGHT FACE " ON UNIT  53 AT TIME STEP 54, STRESS PERIOD   1
 UBDSV1 SAVING "FLOW FRONT FACE " ON UNIT  53 AT TIME STEP 54, STRESS PERIOD   1
 UBDSV1 SAVING "FLOW LOWER FACE " ON UNIT  53 AT TIME STEP 54, STRESS PERIOD   1
 UBDSV1 SAVING "            DCDT" ON UNIT  53 AT TIME STEP 54, STRESS PERIOD   1

 HEAD WILL BE SAVED ON UNIT   51 AT END OF TIME STEP  54, STRESS PERIOD    1


                                          ================================================
                                                         FROM TIME =  0.54000     TO   0.55000    

 
 SOLVING FOR HEAD 
 FLOW MODEL IS TRANSIENT
 FLOW MODEL CONTAINS CONSTANT-HEAD CELLS


 MAXIMUM STEPSIZE DURING WHICH ANY PARTICLE CANNOT MOVE MORE THAN ONE CELL
<<<<<<< Updated upstream
 =  1.094    (WHEN MIN. R.F.=1)  AT K=   3, I=   2, J=  29

 MAXIMUM STEPSIZE WHICH MEETS STABILITY CRITERION OF THE ADVECTION TERM
 (FOR PURE FINITE-DIFFERENCE OPTION, MIXELM=0) 
 = 0.7587    (WHEN MIN. R.F.=1)  AT K=   3, I=   2, J=  28
=======
 =  1.251    (WHEN MIN. R.F.=1)  AT K=   3, I=   2, J=  31

 MAXIMUM STEPSIZE WHICH MEETS STABILITY CRITERION OF THE ADVECTION TERM
 (FOR PURE FINITE-DIFFERENCE OPTION, MIXELM=0) 
 = 0.8359    (WHEN MIN. R.F.=1)  AT K=   3, I=   2, J=  30
>>>>>>> Stashed changes


 TOTAL NUMBER OF POINT SOURCES/SINKS PRESENT IN THE FLOW MODEL =   240

 MAXIMUM STEPSIZE WHICH MEETS STABILITY CRITERION OF THE SINK & SOURCE TERM
 = 0.1000E+31(WHEN MIN. R.F.=1)  AT K=   0, I=   0, J=   0

 MAXIMUM STEPSIZE WHICH MEETS STABILITY CRITERION OF THE DISPERSION TERM
<<<<<<< Updated upstream
 = 0.4126E-01(WHEN MIN. R.F.=1)  AT K=   3, I=   2, J=  31
=======
 = 0.4480E-01(WHEN MIN. R.F.=1)  AT K=   3, I=   2, J=  30
>>>>>>> Stashed changes


     1 CALLS TO GCG PACKAGE FOR TRANSPORT TIME STEP   1 IN FLOW TIME STEP  55 STRESS PERIOD   1
     5 TOTAL ITERATIONS
  MAXIMUM CONCENTRATION CHANGES FOR EACH ITERATION:
  MAX. CHANGE LAYER,ROW,COL MAX. CHANGE LAYER,ROW,COL MAX. CHANGE LAYER,ROW,COL MAX. CHANGE LAYER,ROW,COL MAX. CHANGE LAYER,ROW,COL
 ------------------------------------------------------------------------------------------------------------------------------------
<<<<<<< Updated upstream
   0.2764E-02 (  2,  3, 56)  0.1138E-03 (  3,  2, 34)  0.5290E-05 (  4,  2, 33)  0.3283E-06 (  3,  2, 31)  0.1515E-07 (  4,  3, 31)
=======
   0.3565E-02 (  2,  1, 41)  0.1999E-03 (  3,  2, 37)  0.7186E-05 (  4,  2, 37)  0.4386E-06 (  3,  2, 37)  0.1777E-07 (  4,  2, 37)

 OUTPUT CONTROL FOR STRESS PERIOD    1   TIME STEP  55
    SAVE HEAD FOR ALL LAYERS
    SAVE BUDGET
 UBDSV2 SAVING "   CONSTANT HEAD" ON UNIT  53 AT TIME STEP 55, STRESS PERIOD   1
 UBDSV1 SAVING "FLOW RIGHT FACE " ON UNIT  53 AT TIME STEP 55, STRESS PERIOD   1
 UBDSV1 SAVING "FLOW FRONT FACE " ON UNIT  53 AT TIME STEP 55, STRESS PERIOD   1
 UBDSV1 SAVING "FLOW LOWER FACE " ON UNIT  53 AT TIME STEP 55, STRESS PERIOD   1
 UBDSV1 SAVING "            DCDT" ON UNIT  53 AT TIME STEP 55, STRESS PERIOD   1
>>>>>>> Stashed changes

 HEAD WILL BE SAVED ON UNIT   51 AT END OF TIME STEP  55, STRESS PERIOD    1


                                          ================================================
                                                         FROM TIME =  0.55000     TO   0.56000    

 
 SOLVING FOR HEAD 
 FLOW MODEL IS TRANSIENT
 FLOW MODEL CONTAINS CONSTANT-HEAD CELLS


 MAXIMUM STEPSIZE DURING WHICH ANY PARTICLE CANNOT MOVE MORE THAN ONE CELL
<<<<<<< Updated upstream
 =  1.094    (WHEN MIN. R.F.=1)  AT K=   3, I=   2, J=  29

 MAXIMUM STEPSIZE WHICH MEETS STABILITY CRITERION OF THE ADVECTION TERM
 (FOR PURE FINITE-DIFFERENCE OPTION, MIXELM=0) 
 = 0.7590    (WHEN MIN. R.F.=1)  AT K=   3, I=   2, J=  28
=======
 =  1.251    (WHEN MIN. R.F.=1)  AT K=   3, I=   2, J=  31

 MAXIMUM STEPSIZE WHICH MEETS STABILITY CRITERION OF THE ADVECTION TERM
 (FOR PURE FINITE-DIFFERENCE OPTION, MIXELM=0) 
 = 0.8362    (WHEN MIN. R.F.=1)  AT K=   3, I=   2, J=  30
>>>>>>> Stashed changes


 TOTAL NUMBER OF POINT SOURCES/SINKS PRESENT IN THE FLOW MODEL =   240

 MAXIMUM STEPSIZE WHICH MEETS STABILITY CRITERION OF THE SINK & SOURCE TERM
 = 0.1000E+31(WHEN MIN. R.F.=1)  AT K=   0, I=   0, J=   0

 MAXIMUM STEPSIZE WHICH MEETS STABILITY CRITERION OF THE DISPERSION TERM
<<<<<<< Updated upstream
 = 0.4128E-01(WHEN MIN. R.F.=1)  AT K=   3, I=   2, J=  31
=======
 = 0.4482E-01(WHEN MIN. R.F.=1)  AT K=   3, I=   2, J=  30
>>>>>>> Stashed changes


     1 CALLS TO GCG PACKAGE FOR TRANSPORT TIME STEP   1 IN FLOW TIME STEP  56 STRESS PERIOD   1
     5 TOTAL ITERATIONS
  MAXIMUM CONCENTRATION CHANGES FOR EACH ITERATION:
  MAX. CHANGE LAYER,ROW,COL MAX. CHANGE LAYER,ROW,COL MAX. CHANGE LAYER,ROW,COL MAX. CHANGE LAYER,ROW,COL MAX. CHANGE LAYER,ROW,COL
 ------------------------------------------------------------------------------------------------------------------------------------
<<<<<<< Updated upstream
   0.2746E-02 (  2,  3, 56)  0.1130E-03 (  3,  2, 34)  0.5250E-05 (  4,  2, 33)  0.3258E-06 (  3,  2, 31)  0.1499E-07 (  4,  3, 31)
=======
   0.3517E-02 (  2,  1, 41)  0.1982E-03 (  3,  2, 37)  0.7110E-05 (  4,  2, 37)  0.4359E-06 (  3,  2, 37)  0.1770E-07 (  4,  2, 37)

 OUTPUT CONTROL FOR STRESS PERIOD    1   TIME STEP  56
    SAVE HEAD FOR ALL LAYERS
    SAVE BUDGET
 UBDSV2 SAVING "   CONSTANT HEAD" ON UNIT  53 AT TIME STEP 56, STRESS PERIOD   1
 UBDSV1 SAVING "FLOW RIGHT FACE " ON UNIT  53 AT TIME STEP 56, STRESS PERIOD   1
 UBDSV1 SAVING "FLOW FRONT FACE " ON UNIT  53 AT TIME STEP 56, STRESS PERIOD   1
 UBDSV1 SAVING "FLOW LOWER FACE " ON UNIT  53 AT TIME STEP 56, STRESS PERIOD   1
 UBDSV1 SAVING "            DCDT" ON UNIT  53 AT TIME STEP 56, STRESS PERIOD   1
>>>>>>> Stashed changes

 HEAD WILL BE SAVED ON UNIT   51 AT END OF TIME STEP  56, STRESS PERIOD    1


                                          ================================================
                                                         FROM TIME =  0.56000     TO   0.57000    

 
 SOLVING FOR HEAD 
 FLOW MODEL IS TRANSIENT
 FLOW MODEL CONTAINS CONSTANT-HEAD CELLS


 MAXIMUM STEPSIZE DURING WHICH ANY PARTICLE CANNOT MOVE MORE THAN ONE CELL
<<<<<<< Updated upstream
 =  1.094    (WHEN MIN. R.F.=1)  AT K=   3, I=   2, J=  29

 MAXIMUM STEPSIZE WHICH MEETS STABILITY CRITERION OF THE ADVECTION TERM
 (FOR PURE FINITE-DIFFERENCE OPTION, MIXELM=0) 
 = 0.7593    (WHEN MIN. R.F.=1)  AT K=   3, I=   2, J=  28
=======
 =  1.252    (WHEN MIN. R.F.=1)  AT K=   3, I=   2, J=  31

 MAXIMUM STEPSIZE WHICH MEETS STABILITY CRITERION OF THE ADVECTION TERM
 (FOR PURE FINITE-DIFFERENCE OPTION, MIXELM=0) 
 = 0.8365    (WHEN MIN. R.F.=1)  AT K=   3, I=   2, J=  30
>>>>>>> Stashed changes


 TOTAL NUMBER OF POINT SOURCES/SINKS PRESENT IN THE FLOW MODEL =   240

 MAXIMUM STEPSIZE WHICH MEETS STABILITY CRITERION OF THE SINK & SOURCE TERM
 = 0.1000E+31(WHEN MIN. R.F.=1)  AT K=   0, I=   0, J=   0

 MAXIMUM STEPSIZE WHICH MEETS STABILITY CRITERION OF THE DISPERSION TERM
<<<<<<< Updated upstream
 = 0.4129E-01(WHEN MIN. R.F.=1)  AT K=   3, I=   2, J=  31
=======
 = 0.4483E-01(WHEN MIN. R.F.=1)  AT K=   3, I=   2, J=  30
>>>>>>> Stashed changes


     1 CALLS TO GCG PACKAGE FOR TRANSPORT TIME STEP   1 IN FLOW TIME STEP  57 STRESS PERIOD   1
     5 TOTAL ITERATIONS
  MAXIMUM CONCENTRATION CHANGES FOR EACH ITERATION:
  MAX. CHANGE LAYER,ROW,COL MAX. CHANGE LAYER,ROW,COL MAX. CHANGE LAYER,ROW,COL MAX. CHANGE LAYER,ROW,COL MAX. CHANGE LAYER,ROW,COL
 ------------------------------------------------------------------------------------------------------------------------------------
<<<<<<< Updated upstream
   0.2728E-02 (  2,  3, 56)  0.1122E-03 (  3,  2, 34)  0.5211E-05 (  4,  2, 33)  0.3234E-06 (  3,  2, 31)  0.1486E-07 (  4,  2, 31)
=======
   0.3470E-02 (  2,  1, 41)  0.1965E-03 (  3,  2, 37)  0.7037E-05 (  4,  2, 37)  0.4331E-06 (  3,  2, 37)  0.1762E-07 (  4,  2, 37)

 OUTPUT CONTROL FOR STRESS PERIOD    1   TIME STEP  57
    SAVE HEAD FOR ALL LAYERS
    SAVE BUDGET
 UBDSV2 SAVING "   CONSTANT HEAD" ON UNIT  53 AT TIME STEP 57, STRESS PERIOD   1
 UBDSV1 SAVING "FLOW RIGHT FACE " ON UNIT  53 AT TIME STEP 57, STRESS PERIOD   1
 UBDSV1 SAVING "FLOW FRONT FACE " ON UNIT  53 AT TIME STEP 57, STRESS PERIOD   1
 UBDSV1 SAVING "FLOW LOWER FACE " ON UNIT  53 AT TIME STEP 57, STRESS PERIOD   1
 UBDSV1 SAVING "            DCDT" ON UNIT  53 AT TIME STEP 57, STRESS PERIOD   1
>>>>>>> Stashed changes

 HEAD WILL BE SAVED ON UNIT   51 AT END OF TIME STEP  57, STRESS PERIOD    1


                                          ================================================
                                                         FROM TIME =  0.57000     TO   0.58000    

 
 SOLVING FOR HEAD 
 FLOW MODEL IS TRANSIENT
 FLOW MODEL CONTAINS CONSTANT-HEAD CELLS


 MAXIMUM STEPSIZE DURING WHICH ANY PARTICLE CANNOT MOVE MORE THAN ONE CELL
<<<<<<< Updated upstream
 =  1.095    (WHEN MIN. R.F.=1)  AT K=   3, I=   2, J=  29

 MAXIMUM STEPSIZE WHICH MEETS STABILITY CRITERION OF THE ADVECTION TERM
 (FOR PURE FINITE-DIFFERENCE OPTION, MIXELM=0) 
 = 0.7595    (WHEN MIN. R.F.=1)  AT K=   3, I=   2, J=  28
=======
 =  1.252    (WHEN MIN. R.F.=1)  AT K=   3, I=   2, J=  31

 MAXIMUM STEPSIZE WHICH MEETS STABILITY CRITERION OF THE ADVECTION TERM
 (FOR PURE FINITE-DIFFERENCE OPTION, MIXELM=0) 
 = 0.8368    (WHEN MIN. R.F.=1)  AT K=   3, I=   2, J=  30
>>>>>>> Stashed changes


 TOTAL NUMBER OF POINT SOURCES/SINKS PRESENT IN THE FLOW MODEL =   240

 MAXIMUM STEPSIZE WHICH MEETS STABILITY CRITERION OF THE SINK & SOURCE TERM
 = 0.1000E+31(WHEN MIN. R.F.=1)  AT K=   0, I=   0, J=   0

 MAXIMUM STEPSIZE WHICH MEETS STABILITY CRITERION OF THE DISPERSION TERM
<<<<<<< Updated upstream
 = 0.4131E-01(WHEN MIN. R.F.=1)  AT K=   3, I=   2, J=  31
=======
 = 0.4485E-01(WHEN MIN. R.F.=1)  AT K=   3, I=   2, J=  30
>>>>>>> Stashed changes


     1 CALLS TO GCG PACKAGE FOR TRANSPORT TIME STEP   1 IN FLOW TIME STEP  58 STRESS PERIOD   1
     5 TOTAL ITERATIONS
  MAXIMUM CONCENTRATION CHANGES FOR EACH ITERATION:
  MAX. CHANGE LAYER,ROW,COL MAX. CHANGE LAYER,ROW,COL MAX. CHANGE LAYER,ROW,COL MAX. CHANGE LAYER,ROW,COL MAX. CHANGE LAYER,ROW,COL
 ------------------------------------------------------------------------------------------------------------------------------------
<<<<<<< Updated upstream
   0.2710E-02 (  2,  3, 56)  0.1115E-03 (  3,  2, 34)  0.5172E-05 (  4,  2, 33)  0.3210E-06 (  3,  2, 31)  0.1475E-07 (  4,  2, 31)
=======
   0.3426E-02 (  2,  1, 42)  0.1948E-03 (  3,  2, 37)  0.6965E-05 (  4,  2, 37)  0.4304E-06 (  3,  2, 37)  0.1754E-07 (  4,  2, 37)
>>>>>>> Stashed changes

 OUTPUT CONTROL FOR STRESS PERIOD    1   TIME STEP  58
    SAVE HEAD FOR ALL LAYERS
    SAVE BUDGET
 UBDSV2 SAVING "   CONSTANT HEAD" ON UNIT  53 AT TIME STEP 58, STRESS PERIOD   1
 UBDSV1 SAVING "FLOW RIGHT FACE " ON UNIT  53 AT TIME STEP 58, STRESS PERIOD   1
 UBDSV1 SAVING "FLOW FRONT FACE " ON UNIT  53 AT TIME STEP 58, STRESS PERIOD   1
 UBDSV1 SAVING "FLOW LOWER FACE " ON UNIT  53 AT TIME STEP 58, STRESS PERIOD   1
 UBDSV1 SAVING "            DCDT" ON UNIT  53 AT TIME STEP 58, STRESS PERIOD   1

 HEAD WILL BE SAVED ON UNIT   51 AT END OF TIME STEP  58, STRESS PERIOD    1


                                          ================================================
                                                         FROM TIME =  0.58000     TO   0.59000    

 
 SOLVING FOR HEAD 
 FLOW MODEL IS TRANSIENT
 FLOW MODEL CONTAINS CONSTANT-HEAD CELLS


 MAXIMUM STEPSIZE DURING WHICH ANY PARTICLE CANNOT MOVE MORE THAN ONE CELL
<<<<<<< Updated upstream
 =  1.095    (WHEN MIN. R.F.=1)  AT K=   3, I=   2, J=  29

 MAXIMUM STEPSIZE WHICH MEETS STABILITY CRITERION OF THE ADVECTION TERM
 (FOR PURE FINITE-DIFFERENCE OPTION, MIXELM=0) 
 = 0.7598    (WHEN MIN. R.F.=1)  AT K=   3, I=   2, J=  28
=======
 =  1.253    (WHEN MIN. R.F.=1)  AT K=   3, I=   2, J=  31

 MAXIMUM STEPSIZE WHICH MEETS STABILITY CRITERION OF THE ADVECTION TERM
 (FOR PURE FINITE-DIFFERENCE OPTION, MIXELM=0) 
 = 0.8371    (WHEN MIN. R.F.=1)  AT K=   3, I=   2, J=  30
>>>>>>> Stashed changes


 TOTAL NUMBER OF POINT SOURCES/SINKS PRESENT IN THE FLOW MODEL =   240

 MAXIMUM STEPSIZE WHICH MEETS STABILITY CRITERION OF THE SINK & SOURCE TERM
 = 0.1000E+31(WHEN MIN. R.F.=1)  AT K=   0, I=   0, J=   0

 MAXIMUM STEPSIZE WHICH MEETS STABILITY CRITERION OF THE DISPERSION TERM
<<<<<<< Updated upstream
 = 0.4133E-01(WHEN MIN. R.F.=1)  AT K=   3, I=   2, J=  31
=======
 = 0.4487E-01(WHEN MIN. R.F.=1)  AT K=   3, I=   2, J=  30
>>>>>>> Stashed changes


     1 CALLS TO GCG PACKAGE FOR TRANSPORT TIME STEP   1 IN FLOW TIME STEP  59 STRESS PERIOD   1
     5 TOTAL ITERATIONS
  MAXIMUM CONCENTRATION CHANGES FOR EACH ITERATION:
  MAX. CHANGE LAYER,ROW,COL MAX. CHANGE LAYER,ROW,COL MAX. CHANGE LAYER,ROW,COL MAX. CHANGE LAYER,ROW,COL MAX. CHANGE LAYER,ROW,COL
 ------------------------------------------------------------------------------------------------------------------------------------
<<<<<<< Updated upstream
   0.2692E-02 (  2,  3, 56)  0.1107E-03 (  3,  2, 34)  0.5135E-05 (  4,  2, 33)  0.3186E-06 (  3,  2, 31)  0.1464E-07 (  4,  2, 31)
=======
   0.3382E-02 (  2,  1, 42)  0.1932E-03 (  3,  2, 37)  0.6895E-05 (  4,  2, 37)  0.4276E-06 (  3,  2, 37)  0.1746E-07 (  4,  2, 37)

 OUTPUT CONTROL FOR STRESS PERIOD    1   TIME STEP  59
    SAVE HEAD FOR ALL LAYERS
    SAVE BUDGET
 UBDSV2 SAVING "   CONSTANT HEAD" ON UNIT  53 AT TIME STEP 59, STRESS PERIOD   1
 UBDSV1 SAVING "FLOW RIGHT FACE " ON UNIT  53 AT TIME STEP 59, STRESS PERIOD   1
 UBDSV1 SAVING "FLOW FRONT FACE " ON UNIT  53 AT TIME STEP 59, STRESS PERIOD   1
 UBDSV1 SAVING "FLOW LOWER FACE " ON UNIT  53 AT TIME STEP 59, STRESS PERIOD   1
 UBDSV1 SAVING "            DCDT" ON UNIT  53 AT TIME STEP 59, STRESS PERIOD   1
>>>>>>> Stashed changes

 HEAD WILL BE SAVED ON UNIT   51 AT END OF TIME STEP  59, STRESS PERIOD    1


                                          ================================================
                                                         FROM TIME =  0.59000     TO   0.60000    

 
 SOLVING FOR HEAD 
 FLOW MODEL IS TRANSIENT
 FLOW MODEL CONTAINS CONSTANT-HEAD CELLS


 MAXIMUM STEPSIZE DURING WHICH ANY PARTICLE CANNOT MOVE MORE THAN ONE CELL
<<<<<<< Updated upstream
 =  1.096    (WHEN MIN. R.F.=1)  AT K=   3, I=   2, J=  29

 MAXIMUM STEPSIZE WHICH MEETS STABILITY CRITERION OF THE ADVECTION TERM
 (FOR PURE FINITE-DIFFERENCE OPTION, MIXELM=0) 
 = 0.7601    (WHEN MIN. R.F.=1)  AT K=   3, I=   2, J=  28
=======
 =  1.253    (WHEN MIN. R.F.=1)  AT K=   3, I=   2, J=  31

 MAXIMUM STEPSIZE WHICH MEETS STABILITY CRITERION OF THE ADVECTION TERM
 (FOR PURE FINITE-DIFFERENCE OPTION, MIXELM=0) 
 = 0.8374    (WHEN MIN. R.F.=1)  AT K=   3, I=   2, J=  30
>>>>>>> Stashed changes


 TOTAL NUMBER OF POINT SOURCES/SINKS PRESENT IN THE FLOW MODEL =   240

 MAXIMUM STEPSIZE WHICH MEETS STABILITY CRITERION OF THE SINK & SOURCE TERM
 = 0.1000E+31(WHEN MIN. R.F.=1)  AT K=   0, I=   0, J=   0

 MAXIMUM STEPSIZE WHICH MEETS STABILITY CRITERION OF THE DISPERSION TERM
<<<<<<< Updated upstream
 = 0.4134E-01(WHEN MIN. R.F.=1)  AT K=   3, I=   2, J=  31
=======
 = 0.4488E-01(WHEN MIN. R.F.=1)  AT K=   3, I=   2, J=  30
>>>>>>> Stashed changes


     1 CALLS TO GCG PACKAGE FOR TRANSPORT TIME STEP   1 IN FLOW TIME STEP  60 STRESS PERIOD   1
     5 TOTAL ITERATIONS
  MAXIMUM CONCENTRATION CHANGES FOR EACH ITERATION:
  MAX. CHANGE LAYER,ROW,COL MAX. CHANGE LAYER,ROW,COL MAX. CHANGE LAYER,ROW,COL MAX. CHANGE LAYER,ROW,COL MAX. CHANGE LAYER,ROW,COL
 ------------------------------------------------------------------------------------------------------------------------------------
<<<<<<< Updated upstream
   0.2674E-02 (  2,  3, 56)  0.1100E-03 (  3,  2, 34)  0.5098E-05 (  4,  2, 33)  0.3163E-06 (  3,  2, 31)  0.1454E-07 (  4,  2, 31)
=======
   0.3339E-02 (  2,  1, 42)  0.1916E-03 (  3,  2, 37)  0.6826E-05 (  4,  2, 37)  0.4249E-06 (  3,  2, 37)  0.1739E-07 (  4,  2, 37)

 OUTPUT CONTROL FOR STRESS PERIOD    1   TIME STEP  60
    SAVE HEAD FOR ALL LAYERS
    SAVE BUDGET
 UBDSV2 SAVING "   CONSTANT HEAD" ON UNIT  53 AT TIME STEP 60, STRESS PERIOD   1
 UBDSV1 SAVING "FLOW RIGHT FACE " ON UNIT  53 AT TIME STEP 60, STRESS PERIOD   1
 UBDSV1 SAVING "FLOW FRONT FACE " ON UNIT  53 AT TIME STEP 60, STRESS PERIOD   1
 UBDSV1 SAVING "FLOW LOWER FACE " ON UNIT  53 AT TIME STEP 60, STRESS PERIOD   1
 UBDSV1 SAVING "            DCDT" ON UNIT  53 AT TIME STEP 60, STRESS PERIOD   1
>>>>>>> Stashed changes

 HEAD WILL BE SAVED ON UNIT   51 AT END OF TIME STEP  60, STRESS PERIOD    1


                                          ================================================
                                                         FROM TIME =  0.60000     TO   0.61000    

 
 SOLVING FOR HEAD 
 FLOW MODEL IS TRANSIENT
 FLOW MODEL CONTAINS CONSTANT-HEAD CELLS


 MAXIMUM STEPSIZE DURING WHICH ANY PARTICLE CANNOT MOVE MORE THAN ONE CELL
<<<<<<< Updated upstream
 =  1.096    (WHEN MIN. R.F.=1)  AT K=   3, I=   2, J=  29

 MAXIMUM STEPSIZE WHICH MEETS STABILITY CRITERION OF THE ADVECTION TERM
 (FOR PURE FINITE-DIFFERENCE OPTION, MIXELM=0) 
 = 0.7603    (WHEN MIN. R.F.=1)  AT K=   3, I=   2, J=  28
=======
 =  1.254    (WHEN MIN. R.F.=1)  AT K=   3, I=   2, J=  31

 MAXIMUM STEPSIZE WHICH MEETS STABILITY CRITERION OF THE ADVECTION TERM
 (FOR PURE FINITE-DIFFERENCE OPTION, MIXELM=0) 
 = 0.8377    (WHEN MIN. R.F.=1)  AT K=   3, I=   2, J=  30
>>>>>>> Stashed changes


 TOTAL NUMBER OF POINT SOURCES/SINKS PRESENT IN THE FLOW MODEL =   240

 MAXIMUM STEPSIZE WHICH MEETS STABILITY CRITERION OF THE SINK & SOURCE TERM
 = 0.1000E+31(WHEN MIN. R.F.=1)  AT K=   0, I=   0, J=   0

 MAXIMUM STEPSIZE WHICH MEETS STABILITY CRITERION OF THE DISPERSION TERM
<<<<<<< Updated upstream
 = 0.4136E-01(WHEN MIN. R.F.=1)  AT K=   3, I=   2, J=  31
=======
 = 0.4490E-01(WHEN MIN. R.F.=1)  AT K=   3, I=   2, J=  30
>>>>>>> Stashed changes


     1 CALLS TO GCG PACKAGE FOR TRANSPORT TIME STEP   1 IN FLOW TIME STEP  61 STRESS PERIOD   1
     5 TOTAL ITERATIONS
  MAXIMUM CONCENTRATION CHANGES FOR EACH ITERATION:
  MAX. CHANGE LAYER,ROW,COL MAX. CHANGE LAYER,ROW,COL MAX. CHANGE LAYER,ROW,COL MAX. CHANGE LAYER,ROW,COL MAX. CHANGE LAYER,ROW,COL
 ------------------------------------------------------------------------------------------------------------------------------------
<<<<<<< Updated upstream
   0.2656E-02 (  2,  3, 56)  0.1092E-03 (  3,  2, 34)  0.5061E-05 (  4,  2, 33)  0.3140E-06 (  3,  2, 31)  0.1443E-07 (  4,  2, 31)
=======
   0.3297E-02 (  2,  1, 42)  0.1900E-03 (  3,  2, 37)  0.6759E-05 (  4,  2, 37)  0.4222E-06 (  3,  2, 37)  0.1730E-07 (  4,  2, 37)

 OUTPUT CONTROL FOR STRESS PERIOD    1   TIME STEP  61
    SAVE HEAD FOR ALL LAYERS
    SAVE BUDGET
 UBDSV2 SAVING "   CONSTANT HEAD" ON UNIT  53 AT TIME STEP 61, STRESS PERIOD   1
 UBDSV1 SAVING "FLOW RIGHT FACE " ON UNIT  53 AT TIME STEP 61, STRESS PERIOD   1
 UBDSV1 SAVING "FLOW FRONT FACE " ON UNIT  53 AT TIME STEP 61, STRESS PERIOD   1
 UBDSV1 SAVING "FLOW LOWER FACE " ON UNIT  53 AT TIME STEP 61, STRESS PERIOD   1
 UBDSV1 SAVING "            DCDT" ON UNIT  53 AT TIME STEP 61, STRESS PERIOD   1
>>>>>>> Stashed changes

 HEAD WILL BE SAVED ON UNIT   51 AT END OF TIME STEP  61, STRESS PERIOD    1


                                          ================================================
                                                         FROM TIME =  0.61000     TO   0.62000    

 
 SOLVING FOR HEAD 
 FLOW MODEL IS TRANSIENT
 FLOW MODEL CONTAINS CONSTANT-HEAD CELLS


 MAXIMUM STEPSIZE DURING WHICH ANY PARTICLE CANNOT MOVE MORE THAN ONE CELL
<<<<<<< Updated upstream
 =  1.096    (WHEN MIN. R.F.=1)  AT K=   3, I=   2, J=  29

 MAXIMUM STEPSIZE WHICH MEETS STABILITY CRITERION OF THE ADVECTION TERM
 (FOR PURE FINITE-DIFFERENCE OPTION, MIXELM=0) 
 = 0.7606    (WHEN MIN. R.F.=1)  AT K=   3, I=   2, J=  28
=======
 =  1.254    (WHEN MIN. R.F.=1)  AT K=   3, I=   2, J=  31

 MAXIMUM STEPSIZE WHICH MEETS STABILITY CRITERION OF THE ADVECTION TERM
 (FOR PURE FINITE-DIFFERENCE OPTION, MIXELM=0) 
 = 0.8380    (WHEN MIN. R.F.=1)  AT K=   3, I=   2, J=  30
>>>>>>> Stashed changes


 TOTAL NUMBER OF POINT SOURCES/SINKS PRESENT IN THE FLOW MODEL =   240

 MAXIMUM STEPSIZE WHICH MEETS STABILITY CRITERION OF THE SINK & SOURCE TERM
 = 0.1000E+31(WHEN MIN. R.F.=1)  AT K=   0, I=   0, J=   0

 MAXIMUM STEPSIZE WHICH MEETS STABILITY CRITERION OF THE DISPERSION TERM
<<<<<<< Updated upstream
 = 0.4137E-01(WHEN MIN. R.F.=1)  AT K=   3, I=   2, J=  31
=======
 = 0.4491E-01(WHEN MIN. R.F.=1)  AT K=   3, I=   2, J=  30
>>>>>>> Stashed changes


     1 CALLS TO GCG PACKAGE FOR TRANSPORT TIME STEP   1 IN FLOW TIME STEP  62 STRESS PERIOD   1
     5 TOTAL ITERATIONS
  MAXIMUM CONCENTRATION CHANGES FOR EACH ITERATION:
  MAX. CHANGE LAYER,ROW,COL MAX. CHANGE LAYER,ROW,COL MAX. CHANGE LAYER,ROW,COL MAX. CHANGE LAYER,ROW,COL MAX. CHANGE LAYER,ROW,COL
 ------------------------------------------------------------------------------------------------------------------------------------
<<<<<<< Updated upstream
   0.2638E-02 (  2,  3, 56)  0.1085E-03 (  3,  2, 34)  0.5026E-05 (  4,  2, 33)  0.3118E-06 (  3,  2, 31)  0.1433E-07 (  4,  2, 31)
=======
   0.3256E-02 (  2,  1, 42)  0.1884E-03 (  3,  2, 37)  0.6694E-05 (  4,  2, 37)  0.4195E-06 (  3,  2, 37)  0.1722E-07 (  4,  2, 37)
>>>>>>> Stashed changes

 OUTPUT CONTROL FOR STRESS PERIOD    1   TIME STEP  62
    SAVE HEAD FOR ALL LAYERS
    SAVE BUDGET
 UBDSV2 SAVING "   CONSTANT HEAD" ON UNIT  53 AT TIME STEP 62, STRESS PERIOD   1
 UBDSV1 SAVING "FLOW RIGHT FACE " ON UNIT  53 AT TIME STEP 62, STRESS PERIOD   1
 UBDSV1 SAVING "FLOW FRONT FACE " ON UNIT  53 AT TIME STEP 62, STRESS PERIOD   1
 UBDSV1 SAVING "FLOW LOWER FACE " ON UNIT  53 AT TIME STEP 62, STRESS PERIOD   1
 UBDSV1 SAVING "            DCDT" ON UNIT  53 AT TIME STEP 62, STRESS PERIOD   1

 HEAD WILL BE SAVED ON UNIT   51 AT END OF TIME STEP  62, STRESS PERIOD    1


                                          ================================================
                                                         FROM TIME =  0.62000     TO   0.63000    

 
 SOLVING FOR HEAD 
 FLOW MODEL IS TRANSIENT
 FLOW MODEL CONTAINS CONSTANT-HEAD CELLS


 MAXIMUM STEPSIZE DURING WHICH ANY PARTICLE CANNOT MOVE MORE THAN ONE CELL
<<<<<<< Updated upstream
 =  1.097    (WHEN MIN. R.F.=1)  AT K=   3, I=   2, J=  29

 MAXIMUM STEPSIZE WHICH MEETS STABILITY CRITERION OF THE ADVECTION TERM
 (FOR PURE FINITE-DIFFERENCE OPTION, MIXELM=0) 
 = 0.7609    (WHEN MIN. R.F.=1)  AT K=   3, I=   2, J=  28
=======
 =  1.255    (WHEN MIN. R.F.=1)  AT K=   3, I=   2, J=  31

 MAXIMUM STEPSIZE WHICH MEETS STABILITY CRITERION OF THE ADVECTION TERM
 (FOR PURE FINITE-DIFFERENCE OPTION, MIXELM=0) 
 = 0.8383    (WHEN MIN. R.F.=1)  AT K=   3, I=   2, J=  30
>>>>>>> Stashed changes


 TOTAL NUMBER OF POINT SOURCES/SINKS PRESENT IN THE FLOW MODEL =   240

 MAXIMUM STEPSIZE WHICH MEETS STABILITY CRITERION OF THE SINK & SOURCE TERM
 = 0.1000E+31(WHEN MIN. R.F.=1)  AT K=   0, I=   0, J=   0

 MAXIMUM STEPSIZE WHICH MEETS STABILITY CRITERION OF THE DISPERSION TERM
<<<<<<< Updated upstream
 = 0.4139E-01(WHEN MIN. R.F.=1)  AT K=   3, I=   2, J=  31
=======
 = 0.4493E-01(WHEN MIN. R.F.=1)  AT K=   3, I=   2, J=  30
>>>>>>> Stashed changes


     1 CALLS TO GCG PACKAGE FOR TRANSPORT TIME STEP   1 IN FLOW TIME STEP  63 STRESS PERIOD   1
     5 TOTAL ITERATIONS
  MAXIMUM CONCENTRATION CHANGES FOR EACH ITERATION:
  MAX. CHANGE LAYER,ROW,COL MAX. CHANGE LAYER,ROW,COL MAX. CHANGE LAYER,ROW,COL MAX. CHANGE LAYER,ROW,COL MAX. CHANGE LAYER,ROW,COL
 ------------------------------------------------------------------------------------------------------------------------------------
<<<<<<< Updated upstream
   0.2620E-02 (  2,  3, 56)  0.1078E-03 (  3,  2, 34)  0.4990E-05 (  4,  2, 33)  0.3095E-06 (  3,  2, 31)  0.1423E-07 (  4,  2, 31)
=======
   0.3215E-02 (  2,  1, 42)  0.1869E-03 (  3,  2, 37)  0.6630E-05 (  4,  2, 37)  0.4168E-06 (  3,  2, 37)  0.1714E-07 (  4,  2, 37)

 OUTPUT CONTROL FOR STRESS PERIOD    1   TIME STEP  63
    SAVE HEAD FOR ALL LAYERS
    SAVE BUDGET
 UBDSV2 SAVING "   CONSTANT HEAD" ON UNIT  53 AT TIME STEP 63, STRESS PERIOD   1
 UBDSV1 SAVING "FLOW RIGHT FACE " ON UNIT  53 AT TIME STEP 63, STRESS PERIOD   1
 UBDSV1 SAVING "FLOW FRONT FACE " ON UNIT  53 AT TIME STEP 63, STRESS PERIOD   1
 UBDSV1 SAVING "FLOW LOWER FACE " ON UNIT  53 AT TIME STEP 63, STRESS PERIOD   1
 UBDSV1 SAVING "            DCDT" ON UNIT  53 AT TIME STEP 63, STRESS PERIOD   1
>>>>>>> Stashed changes

 HEAD WILL BE SAVED ON UNIT   51 AT END OF TIME STEP  63, STRESS PERIOD    1


                                          ================================================
                                                         FROM TIME =  0.63000     TO   0.64000    

 
 SOLVING FOR HEAD 
 FLOW MODEL IS TRANSIENT
 FLOW MODEL CONTAINS CONSTANT-HEAD CELLS


 MAXIMUM STEPSIZE DURING WHICH ANY PARTICLE CANNOT MOVE MORE THAN ONE CELL
<<<<<<< Updated upstream
 =  1.097    (WHEN MIN. R.F.=1)  AT K=   3, I=   2, J=  29

 MAXIMUM STEPSIZE WHICH MEETS STABILITY CRITERION OF THE ADVECTION TERM
 (FOR PURE FINITE-DIFFERENCE OPTION, MIXELM=0) 
 = 0.7611    (WHEN MIN. R.F.=1)  AT K=   3, I=   2, J=  28
=======
 =  1.255    (WHEN MIN. R.F.=1)  AT K=   3, I=   2, J=  31

 MAXIMUM STEPSIZE WHICH MEETS STABILITY CRITERION OF THE ADVECTION TERM
 (FOR PURE FINITE-DIFFERENCE OPTION, MIXELM=0) 
 = 0.8386    (WHEN MIN. R.F.=1)  AT K=   3, I=   2, J=  30
>>>>>>> Stashed changes


 TOTAL NUMBER OF POINT SOURCES/SINKS PRESENT IN THE FLOW MODEL =   240

 MAXIMUM STEPSIZE WHICH MEETS STABILITY CRITERION OF THE SINK & SOURCE TERM
 = 0.1000E+31(WHEN MIN. R.F.=1)  AT K=   0, I=   0, J=   0

 MAXIMUM STEPSIZE WHICH MEETS STABILITY CRITERION OF THE DISPERSION TERM
<<<<<<< Updated upstream
 = 0.4140E-01(WHEN MIN. R.F.=1)  AT K=   3, I=   2, J=  31
=======
 = 0.4494E-01(WHEN MIN. R.F.=1)  AT K=   3, I=   2, J=  30
>>>>>>> Stashed changes


     1 CALLS TO GCG PACKAGE FOR TRANSPORT TIME STEP   1 IN FLOW TIME STEP  64 STRESS PERIOD   1
     5 TOTAL ITERATIONS
  MAXIMUM CONCENTRATION CHANGES FOR EACH ITERATION:
  MAX. CHANGE LAYER,ROW,COL MAX. CHANGE LAYER,ROW,COL MAX. CHANGE LAYER,ROW,COL MAX. CHANGE LAYER,ROW,COL MAX. CHANGE LAYER,ROW,COL
 ------------------------------------------------------------------------------------------------------------------------------------
<<<<<<< Updated upstream
   0.2602E-02 (  2,  3, 56)  0.1071E-03 (  3,  2, 34)  0.4956E-05 (  4,  2, 33)  0.3074E-06 (  3,  2, 31)  0.1413E-07 (  4,  2, 31)
=======
   0.3175E-02 (  2,  1, 42)  0.1854E-03 (  3,  2, 37)  0.6568E-05 (  4,  2, 37)  0.4141E-06 (  3,  2, 37)  0.1706E-07 (  4,  2, 37)

 OUTPUT CONTROL FOR STRESS PERIOD    1   TIME STEP  64
    SAVE HEAD FOR ALL LAYERS
    SAVE BUDGET
 UBDSV2 SAVING "   CONSTANT HEAD" ON UNIT  53 AT TIME STEP 64, STRESS PERIOD   1
 UBDSV1 SAVING "FLOW RIGHT FACE " ON UNIT  53 AT TIME STEP 64, STRESS PERIOD   1
 UBDSV1 SAVING "FLOW FRONT FACE " ON UNIT  53 AT TIME STEP 64, STRESS PERIOD   1
 UBDSV1 SAVING "FLOW LOWER FACE " ON UNIT  53 AT TIME STEP 64, STRESS PERIOD   1
 UBDSV1 SAVING "            DCDT" ON UNIT  53 AT TIME STEP 64, STRESS PERIOD   1
>>>>>>> Stashed changes

 HEAD WILL BE SAVED ON UNIT   51 AT END OF TIME STEP  64, STRESS PERIOD    1


                                          ================================================
                                                         FROM TIME =  0.64000     TO   0.65000    

 
 SOLVING FOR HEAD 
 FLOW MODEL IS TRANSIENT
 FLOW MODEL CONTAINS CONSTANT-HEAD CELLS


 MAXIMUM STEPSIZE DURING WHICH ANY PARTICLE CANNOT MOVE MORE THAN ONE CELL
<<<<<<< Updated upstream
 =  1.097    (WHEN MIN. R.F.=1)  AT K=   3, I=   2, J=  29

 MAXIMUM STEPSIZE WHICH MEETS STABILITY CRITERION OF THE ADVECTION TERM
 (FOR PURE FINITE-DIFFERENCE OPTION, MIXELM=0) 
 = 0.7614    (WHEN MIN. R.F.=1)  AT K=   3, I=   2, J=  28
=======
 =  1.256    (WHEN MIN. R.F.=1)  AT K=   3, I=   2, J=  31

 MAXIMUM STEPSIZE WHICH MEETS STABILITY CRITERION OF THE ADVECTION TERM
 (FOR PURE FINITE-DIFFERENCE OPTION, MIXELM=0) 
 = 0.8389    (WHEN MIN. R.F.=1)  AT K=   3, I=   2, J=  30
>>>>>>> Stashed changes


 TOTAL NUMBER OF POINT SOURCES/SINKS PRESENT IN THE FLOW MODEL =   240

 MAXIMUM STEPSIZE WHICH MEETS STABILITY CRITERION OF THE SINK & SOURCE TERM
 = 0.1000E+31(WHEN MIN. R.F.=1)  AT K=   0, I=   0, J=   0

 MAXIMUM STEPSIZE WHICH MEETS STABILITY CRITERION OF THE DISPERSION TERM
<<<<<<< Updated upstream
 = 0.4142E-01(WHEN MIN. R.F.=1)  AT K=   3, I=   2, J=  31
=======
 = 0.4496E-01(WHEN MIN. R.F.=1)  AT K=   3, I=   2, J=  30
>>>>>>> Stashed changes


     1 CALLS TO GCG PACKAGE FOR TRANSPORT TIME STEP   1 IN FLOW TIME STEP  65 STRESS PERIOD   1
     5 TOTAL ITERATIONS
  MAXIMUM CONCENTRATION CHANGES FOR EACH ITERATION:
  MAX. CHANGE LAYER,ROW,COL MAX. CHANGE LAYER,ROW,COL MAX. CHANGE LAYER,ROW,COL MAX. CHANGE LAYER,ROW,COL MAX. CHANGE LAYER,ROW,COL
 ------------------------------------------------------------------------------------------------------------------------------------
<<<<<<< Updated upstream
   0.2585E-02 (  2,  3, 56)  0.1064E-03 (  3,  2, 34)  0.4922E-05 (  4,  2, 33)  0.3053E-06 (  3,  2, 31)  0.1403E-07 (  4,  2, 31)
=======
   0.3135E-02 (  2,  1, 42)  0.1840E-03 (  3,  2, 37)  0.6507E-05 (  4,  2, 37)  0.4115E-06 (  3,  2, 37)  0.1697E-07 (  4,  2, 37)

 OUTPUT CONTROL FOR STRESS PERIOD    1   TIME STEP  65
    SAVE HEAD FOR ALL LAYERS
    SAVE BUDGET
 UBDSV2 SAVING "   CONSTANT HEAD" ON UNIT  53 AT TIME STEP 65, STRESS PERIOD   1
 UBDSV1 SAVING "FLOW RIGHT FACE " ON UNIT  53 AT TIME STEP 65, STRESS PERIOD   1
 UBDSV1 SAVING "FLOW FRONT FACE " ON UNIT  53 AT TIME STEP 65, STRESS PERIOD   1
 UBDSV1 SAVING "FLOW LOWER FACE " ON UNIT  53 AT TIME STEP 65, STRESS PERIOD   1
 UBDSV1 SAVING "            DCDT" ON UNIT  53 AT TIME STEP 65, STRESS PERIOD   1
>>>>>>> Stashed changes

 HEAD WILL BE SAVED ON UNIT   51 AT END OF TIME STEP  65, STRESS PERIOD    1


                                          ================================================
                                                         FROM TIME =  0.65000     TO   0.66000    

 
 SOLVING FOR HEAD 
 FLOW MODEL IS TRANSIENT
 FLOW MODEL CONTAINS CONSTANT-HEAD CELLS


 MAXIMUM STEPSIZE DURING WHICH ANY PARTICLE CANNOT MOVE MORE THAN ONE CELL
<<<<<<< Updated upstream
 =  1.098    (WHEN MIN. R.F.=1)  AT K=   3, I=   2, J=  29

 MAXIMUM STEPSIZE WHICH MEETS STABILITY CRITERION OF THE ADVECTION TERM
 (FOR PURE FINITE-DIFFERENCE OPTION, MIXELM=0) 
 = 0.7617    (WHEN MIN. R.F.=1)  AT K=   3, I=   2, J=  28
=======
 =  1.256    (WHEN MIN. R.F.=1)  AT K=   3, I=   2, J=  31

 MAXIMUM STEPSIZE WHICH MEETS STABILITY CRITERION OF THE ADVECTION TERM
 (FOR PURE FINITE-DIFFERENCE OPTION, MIXELM=0) 
 = 0.8392    (WHEN MIN. R.F.=1)  AT K=   3, I=   2, J=  30
>>>>>>> Stashed changes


 TOTAL NUMBER OF POINT SOURCES/SINKS PRESENT IN THE FLOW MODEL =   240

 MAXIMUM STEPSIZE WHICH MEETS STABILITY CRITERION OF THE SINK & SOURCE TERM
 = 0.1000E+31(WHEN MIN. R.F.=1)  AT K=   0, I=   0, J=   0

 MAXIMUM STEPSIZE WHICH MEETS STABILITY CRITERION OF THE DISPERSION TERM
<<<<<<< Updated upstream
 = 0.4143E-01(WHEN MIN. R.F.=1)  AT K=   3, I=   2, J=  31
=======
 = 0.4497E-01(WHEN MIN. R.F.=1)  AT K=   3, I=   2, J=  30
>>>>>>> Stashed changes


     1 CALLS TO GCG PACKAGE FOR TRANSPORT TIME STEP   1 IN FLOW TIME STEP  66 STRESS PERIOD   1
     5 TOTAL ITERATIONS
  MAXIMUM CONCENTRATION CHANGES FOR EACH ITERATION:
  MAX. CHANGE LAYER,ROW,COL MAX. CHANGE LAYER,ROW,COL MAX. CHANGE LAYER,ROW,COL MAX. CHANGE LAYER,ROW,COL MAX. CHANGE LAYER,ROW,COL
 ------------------------------------------------------------------------------------------------------------------------------------
<<<<<<< Updated upstream
   0.2567E-02 (  2,  3, 56)  0.1057E-03 (  3,  2, 34)  0.4889E-05 (  4,  2, 33)  0.3032E-06 (  3,  2, 31)  0.1393E-07 (  4,  2, 31)
=======
   0.3096E-02 (  2,  1, 42)  0.1825E-03 (  3,  2, 37)  0.6447E-05 (  4,  2, 37)  0.4088E-06 (  3,  2, 37)  0.1689E-07 (  4,  2, 37)
>>>>>>> Stashed changes

 OUTPUT CONTROL FOR STRESS PERIOD    1   TIME STEP  66
    SAVE HEAD FOR ALL LAYERS
    SAVE BUDGET
 UBDSV2 SAVING "   CONSTANT HEAD" ON UNIT  53 AT TIME STEP 66, STRESS PERIOD   1
 UBDSV1 SAVING "FLOW RIGHT FACE " ON UNIT  53 AT TIME STEP 66, STRESS PERIOD   1
 UBDSV1 SAVING "FLOW FRONT FACE " ON UNIT  53 AT TIME STEP 66, STRESS PERIOD   1
 UBDSV1 SAVING "FLOW LOWER FACE " ON UNIT  53 AT TIME STEP 66, STRESS PERIOD   1
 UBDSV1 SAVING "            DCDT" ON UNIT  53 AT TIME STEP 66, STRESS PERIOD   1

 HEAD WILL BE SAVED ON UNIT   51 AT END OF TIME STEP  66, STRESS PERIOD    1


                                          ================================================
                                                         FROM TIME =  0.66000     TO   0.67000    

 
 SOLVING FOR HEAD 
 FLOW MODEL IS TRANSIENT
 FLOW MODEL CONTAINS CONSTANT-HEAD CELLS


 MAXIMUM STEPSIZE DURING WHICH ANY PARTICLE CANNOT MOVE MORE THAN ONE CELL
<<<<<<< Updated upstream
 =  1.098    (WHEN MIN. R.F.=1)  AT K=   3, I=   2, J=  29

 MAXIMUM STEPSIZE WHICH MEETS STABILITY CRITERION OF THE ADVECTION TERM
 (FOR PURE FINITE-DIFFERENCE OPTION, MIXELM=0) 
 = 0.7619    (WHEN MIN. R.F.=1)  AT K=   3, I=   2, J=  28
=======
 =  1.256    (WHEN MIN. R.F.=1)  AT K=   3, I=   2, J=  31

 MAXIMUM STEPSIZE WHICH MEETS STABILITY CRITERION OF THE ADVECTION TERM
 (FOR PURE FINITE-DIFFERENCE OPTION, MIXELM=0) 
 = 0.8395    (WHEN MIN. R.F.=1)  AT K=   3, I=   2, J=  30
>>>>>>> Stashed changes


 TOTAL NUMBER OF POINT SOURCES/SINKS PRESENT IN THE FLOW MODEL =   240

 MAXIMUM STEPSIZE WHICH MEETS STABILITY CRITERION OF THE SINK & SOURCE TERM
 = 0.1000E+31(WHEN MIN. R.F.=1)  AT K=   0, I=   0, J=   0

 MAXIMUM STEPSIZE WHICH MEETS STABILITY CRITERION OF THE DISPERSION TERM
<<<<<<< Updated upstream
 = 0.4145E-01(WHEN MIN. R.F.=1)  AT K=   3, I=   2, J=  31
=======
 = 0.4499E-01(WHEN MIN. R.F.=1)  AT K=   3, I=   2, J=  30
>>>>>>> Stashed changes


     1 CALLS TO GCG PACKAGE FOR TRANSPORT TIME STEP   1 IN FLOW TIME STEP  67 STRESS PERIOD   1
     5 TOTAL ITERATIONS
  MAXIMUM CONCENTRATION CHANGES FOR EACH ITERATION:
  MAX. CHANGE LAYER,ROW,COL MAX. CHANGE LAYER,ROW,COL MAX. CHANGE LAYER,ROW,COL MAX. CHANGE LAYER,ROW,COL MAX. CHANGE LAYER,ROW,COL
 ------------------------------------------------------------------------------------------------------------------------------------
<<<<<<< Updated upstream
   0.2549E-02 (  2,  3, 56)  0.1050E-03 (  3,  2, 34)  0.4856E-05 (  4,  2, 33)  0.3011E-06 (  3,  2, 31)  0.1383E-07 (  4,  2, 31)
=======
   0.3058E-02 (  2,  1, 42)  0.1811E-03 (  3,  2, 37)  0.6389E-05 (  4,  2, 37)  0.4062E-06 (  3,  2, 37)  0.1680E-07 (  4,  2, 37)

 OUTPUT CONTROL FOR STRESS PERIOD    1   TIME STEP  67
    SAVE HEAD FOR ALL LAYERS
    SAVE BUDGET
 UBDSV2 SAVING "   CONSTANT HEAD" ON UNIT  53 AT TIME STEP 67, STRESS PERIOD   1
 UBDSV1 SAVING "FLOW RIGHT FACE " ON UNIT  53 AT TIME STEP 67, STRESS PERIOD   1
 UBDSV1 SAVING "FLOW FRONT FACE " ON UNIT  53 AT TIME STEP 67, STRESS PERIOD   1
 UBDSV1 SAVING "FLOW LOWER FACE " ON UNIT  53 AT TIME STEP 67, STRESS PERIOD   1
 UBDSV1 SAVING "            DCDT" ON UNIT  53 AT TIME STEP 67, STRESS PERIOD   1
>>>>>>> Stashed changes

 HEAD WILL BE SAVED ON UNIT   51 AT END OF TIME STEP  67, STRESS PERIOD    1


                                          ================================================
                                                         FROM TIME =  0.67000     TO   0.68000    

 
 SOLVING FOR HEAD 
 FLOW MODEL IS TRANSIENT
 FLOW MODEL CONTAINS CONSTANT-HEAD CELLS


 MAXIMUM STEPSIZE DURING WHICH ANY PARTICLE CANNOT MOVE MORE THAN ONE CELL
<<<<<<< Updated upstream
 =  1.099    (WHEN MIN. R.F.=1)  AT K=   3, I=   2, J=  29

 MAXIMUM STEPSIZE WHICH MEETS STABILITY CRITERION OF THE ADVECTION TERM
 (FOR PURE FINITE-DIFFERENCE OPTION, MIXELM=0) 
 = 0.7622    (WHEN MIN. R.F.=1)  AT K=   3, I=   2, J=  28
=======
 =  1.257    (WHEN MIN. R.F.=1)  AT K=   3, I=   2, J=  31

 MAXIMUM STEPSIZE WHICH MEETS STABILITY CRITERION OF THE ADVECTION TERM
 (FOR PURE FINITE-DIFFERENCE OPTION, MIXELM=0) 
 = 0.8398    (WHEN MIN. R.F.=1)  AT K=   3, I=   2, J=  30
>>>>>>> Stashed changes


 TOTAL NUMBER OF POINT SOURCES/SINKS PRESENT IN THE FLOW MODEL =   240

 MAXIMUM STEPSIZE WHICH MEETS STABILITY CRITERION OF THE SINK & SOURCE TERM
 = 0.1000E+31(WHEN MIN. R.F.=1)  AT K=   0, I=   0, J=   0

 MAXIMUM STEPSIZE WHICH MEETS STABILITY CRITERION OF THE DISPERSION TERM
<<<<<<< Updated upstream
 = 0.4146E-01(WHEN MIN. R.F.=1)  AT K=   3, I=   2, J=  31
=======
 = 0.4501E-01(WHEN MIN. R.F.=1)  AT K=   3, I=   2, J=  30
>>>>>>> Stashed changes


     1 CALLS TO GCG PACKAGE FOR TRANSPORT TIME STEP   1 IN FLOW TIME STEP  68 STRESS PERIOD   1
     5 TOTAL ITERATIONS
  MAXIMUM CONCENTRATION CHANGES FOR EACH ITERATION:
  MAX. CHANGE LAYER,ROW,COL MAX. CHANGE LAYER,ROW,COL MAX. CHANGE LAYER,ROW,COL MAX. CHANGE LAYER,ROW,COL MAX. CHANGE LAYER,ROW,COL
 ------------------------------------------------------------------------------------------------------------------------------------
<<<<<<< Updated upstream
   0.2532E-02 (  2,  3, 56)  0.1043E-03 (  3,  2, 34)  0.4823E-05 (  4,  2, 33)  0.2991E-06 (  3,  2, 31)  0.1374E-07 (  4,  2, 31)
=======
   0.3021E-02 (  2,  1, 42)  0.1797E-03 (  3,  2, 37)  0.6332E-05 (  4,  2, 37)  0.4035E-06 (  3,  2, 37)  0.1671E-07 (  4,  2, 37)

 OUTPUT CONTROL FOR STRESS PERIOD    1   TIME STEP  68
    SAVE HEAD FOR ALL LAYERS
    SAVE BUDGET
 UBDSV2 SAVING "   CONSTANT HEAD" ON UNIT  53 AT TIME STEP 68, STRESS PERIOD   1
 UBDSV1 SAVING "FLOW RIGHT FACE " ON UNIT  53 AT TIME STEP 68, STRESS PERIOD   1
 UBDSV1 SAVING "FLOW FRONT FACE " ON UNIT  53 AT TIME STEP 68, STRESS PERIOD   1
 UBDSV1 SAVING "FLOW LOWER FACE " ON UNIT  53 AT TIME STEP 68, STRESS PERIOD   1
 UBDSV1 SAVING "            DCDT" ON UNIT  53 AT TIME STEP 68, STRESS PERIOD   1
>>>>>>> Stashed changes

 HEAD WILL BE SAVED ON UNIT   51 AT END OF TIME STEP  68, STRESS PERIOD    1


                                          ================================================
                                                         FROM TIME =  0.68000     TO   0.69000    

 
 SOLVING FOR HEAD 
 FLOW MODEL IS TRANSIENT
 FLOW MODEL CONTAINS CONSTANT-HEAD CELLS


 MAXIMUM STEPSIZE DURING WHICH ANY PARTICLE CANNOT MOVE MORE THAN ONE CELL
<<<<<<< Updated upstream
 =  1.099    (WHEN MIN. R.F.=1)  AT K=   3, I=   2, J=  29

 MAXIMUM STEPSIZE WHICH MEETS STABILITY CRITERION OF THE ADVECTION TERM
 (FOR PURE FINITE-DIFFERENCE OPTION, MIXELM=0) 
 = 0.7624    (WHEN MIN. R.F.=1)  AT K=   3, I=   2, J=  28
=======
 =  1.257    (WHEN MIN. R.F.=1)  AT K=   3, I=   2, J=  31

 MAXIMUM STEPSIZE WHICH MEETS STABILITY CRITERION OF THE ADVECTION TERM
 (FOR PURE FINITE-DIFFERENCE OPTION, MIXELM=0) 
 = 0.8400    (WHEN MIN. R.F.=1)  AT K=   3, I=   2, J=  30
>>>>>>> Stashed changes


 TOTAL NUMBER OF POINT SOURCES/SINKS PRESENT IN THE FLOW MODEL =   240

 MAXIMUM STEPSIZE WHICH MEETS STABILITY CRITERION OF THE SINK & SOURCE TERM
 = 0.1000E+31(WHEN MIN. R.F.=1)  AT K=   0, I=   0, J=   0

 MAXIMUM STEPSIZE WHICH MEETS STABILITY CRITERION OF THE DISPERSION TERM
<<<<<<< Updated upstream
 = 0.4148E-01(WHEN MIN. R.F.=1)  AT K=   3, I=   2, J=  31
=======
 = 0.4502E-01(WHEN MIN. R.F.=1)  AT K=   3, I=   2, J=  30
>>>>>>> Stashed changes


     1 CALLS TO GCG PACKAGE FOR TRANSPORT TIME STEP   1 IN FLOW TIME STEP  69 STRESS PERIOD   1
     5 TOTAL ITERATIONS
  MAXIMUM CONCENTRATION CHANGES FOR EACH ITERATION:
  MAX. CHANGE LAYER,ROW,COL MAX. CHANGE LAYER,ROW,COL MAX. CHANGE LAYER,ROW,COL MAX. CHANGE LAYER,ROW,COL MAX. CHANGE LAYER,ROW,COL
 ------------------------------------------------------------------------------------------------------------------------------------
<<<<<<< Updated upstream
   0.2514E-02 (  2,  3, 56)  0.1037E-03 (  3,  2, 34)  0.4792E-05 (  4,  2, 33)  0.2971E-06 (  3,  2, 31)  0.1365E-07 (  4,  2, 31)
=======
   0.2984E-02 (  2,  1, 42)  0.1783E-03 (  3,  2, 37)  0.6276E-05 (  4,  2, 37)  0.4009E-06 (  3,  2, 37)  0.1663E-07 (  4,  2, 37)

 OUTPUT CONTROL FOR STRESS PERIOD    1   TIME STEP  69
    SAVE HEAD FOR ALL LAYERS
    SAVE BUDGET
 UBDSV2 SAVING "   CONSTANT HEAD" ON UNIT  53 AT TIME STEP 69, STRESS PERIOD   1
 UBDSV1 SAVING "FLOW RIGHT FACE " ON UNIT  53 AT TIME STEP 69, STRESS PERIOD   1
 UBDSV1 SAVING "FLOW FRONT FACE " ON UNIT  53 AT TIME STEP 69, STRESS PERIOD   1
 UBDSV1 SAVING "FLOW LOWER FACE " ON UNIT  53 AT TIME STEP 69, STRESS PERIOD   1
 UBDSV1 SAVING "            DCDT" ON UNIT  53 AT TIME STEP 69, STRESS PERIOD   1
>>>>>>> Stashed changes

 HEAD WILL BE SAVED ON UNIT   51 AT END OF TIME STEP  69, STRESS PERIOD    1


                                          ================================================
                                                         FROM TIME =  0.69000     TO   0.70000    

 
 SOLVING FOR HEAD 
 FLOW MODEL IS TRANSIENT
 FLOW MODEL CONTAINS CONSTANT-HEAD CELLS


 MAXIMUM STEPSIZE DURING WHICH ANY PARTICLE CANNOT MOVE MORE THAN ONE CELL
<<<<<<< Updated upstream
 =  1.099    (WHEN MIN. R.F.=1)  AT K=   3, I=   2, J=  29

 MAXIMUM STEPSIZE WHICH MEETS STABILITY CRITERION OF THE ADVECTION TERM
 (FOR PURE FINITE-DIFFERENCE OPTION, MIXELM=0) 
 = 0.7627    (WHEN MIN. R.F.=1)  AT K=   3, I=   2, J=  28
=======
 =  1.258    (WHEN MIN. R.F.=1)  AT K=   3, I=   2, J=  31

 MAXIMUM STEPSIZE WHICH MEETS STABILITY CRITERION OF THE ADVECTION TERM
 (FOR PURE FINITE-DIFFERENCE OPTION, MIXELM=0) 
 = 0.8403    (WHEN MIN. R.F.=1)  AT K=   3, I=   2, J=  30
>>>>>>> Stashed changes


 TOTAL NUMBER OF POINT SOURCES/SINKS PRESENT IN THE FLOW MODEL =   240

 MAXIMUM STEPSIZE WHICH MEETS STABILITY CRITERION OF THE SINK & SOURCE TERM
 = 0.1000E+31(WHEN MIN. R.F.=1)  AT K=   0, I=   0, J=   0

 MAXIMUM STEPSIZE WHICH MEETS STABILITY CRITERION OF THE DISPERSION TERM
<<<<<<< Updated upstream
 = 0.4149E-01(WHEN MIN. R.F.=1)  AT K=   3, I=   2, J=  31
=======
 = 0.4504E-01(WHEN MIN. R.F.=1)  AT K=   3, I=   2, J=  30
>>>>>>> Stashed changes


     1 CALLS TO GCG PACKAGE FOR TRANSPORT TIME STEP   1 IN FLOW TIME STEP  70 STRESS PERIOD   1
     5 TOTAL ITERATIONS
  MAXIMUM CONCENTRATION CHANGES FOR EACH ITERATION:
  MAX. CHANGE LAYER,ROW,COL MAX. CHANGE LAYER,ROW,COL MAX. CHANGE LAYER,ROW,COL MAX. CHANGE LAYER,ROW,COL MAX. CHANGE LAYER,ROW,COL
 ------------------------------------------------------------------------------------------------------------------------------------
<<<<<<< Updated upstream
   0.2497E-02 (  2,  3, 56)  0.1030E-03 (  3,  2, 34)  0.4760E-05 (  4,  2, 33)  0.2951E-06 (  3,  2, 31)  0.1356E-07 (  4,  2, 31)
=======
   0.2947E-02 (  2,  1, 42)  0.1770E-03 (  3,  2, 37)  0.6221E-05 (  4,  2, 37)  0.3983E-06 (  3,  2, 37)  0.1654E-07 (  4,  2, 37)
>>>>>>> Stashed changes

 OUTPUT CONTROL FOR STRESS PERIOD    1   TIME STEP  70
    SAVE HEAD FOR ALL LAYERS
    SAVE BUDGET
 UBDSV2 SAVING "   CONSTANT HEAD" ON UNIT  53 AT TIME STEP 70, STRESS PERIOD   1
 UBDSV1 SAVING "FLOW RIGHT FACE " ON UNIT  53 AT TIME STEP 70, STRESS PERIOD   1
 UBDSV1 SAVING "FLOW FRONT FACE " ON UNIT  53 AT TIME STEP 70, STRESS PERIOD   1
 UBDSV1 SAVING "FLOW LOWER FACE " ON UNIT  53 AT TIME STEP 70, STRESS PERIOD   1
 UBDSV1 SAVING "            DCDT" ON UNIT  53 AT TIME STEP 70, STRESS PERIOD   1

 HEAD WILL BE SAVED ON UNIT   51 AT END OF TIME STEP  70, STRESS PERIOD    1


                                          ================================================
                                                         FROM TIME =  0.70000     TO   0.71000    

 
 SOLVING FOR HEAD 
 FLOW MODEL IS TRANSIENT
 FLOW MODEL CONTAINS CONSTANT-HEAD CELLS


 MAXIMUM STEPSIZE DURING WHICH ANY PARTICLE CANNOT MOVE MORE THAN ONE CELL
<<<<<<< Updated upstream
 =  1.100    (WHEN MIN. R.F.=1)  AT K=   3, I=   2, J=  29

 MAXIMUM STEPSIZE WHICH MEETS STABILITY CRITERION OF THE ADVECTION TERM
 (FOR PURE FINITE-DIFFERENCE OPTION, MIXELM=0) 
 = 0.7629    (WHEN MIN. R.F.=1)  AT K=   3, I=   2, J=  28
=======
 =  1.258    (WHEN MIN. R.F.=1)  AT K=   3, I=   2, J=  31

 MAXIMUM STEPSIZE WHICH MEETS STABILITY CRITERION OF THE ADVECTION TERM
 (FOR PURE FINITE-DIFFERENCE OPTION, MIXELM=0) 
 = 0.8406    (WHEN MIN. R.F.=1)  AT K=   3, I=   2, J=  30
>>>>>>> Stashed changes


 TOTAL NUMBER OF POINT SOURCES/SINKS PRESENT IN THE FLOW MODEL =   240

 MAXIMUM STEPSIZE WHICH MEETS STABILITY CRITERION OF THE SINK & SOURCE TERM
 = 0.1000E+31(WHEN MIN. R.F.=1)  AT K=   0, I=   0, J=   0

 MAXIMUM STEPSIZE WHICH MEETS STABILITY CRITERION OF THE DISPERSION TERM
<<<<<<< Updated upstream
 = 0.4151E-01(WHEN MIN. R.F.=1)  AT K=   3, I=   2, J=  31
=======
 = 0.4505E-01(WHEN MIN. R.F.=1)  AT K=   3, I=   2, J=  30
>>>>>>> Stashed changes


     1 CALLS TO GCG PACKAGE FOR TRANSPORT TIME STEP   1 IN FLOW TIME STEP  71 STRESS PERIOD   1
     5 TOTAL ITERATIONS
  MAXIMUM CONCENTRATION CHANGES FOR EACH ITERATION:
  MAX. CHANGE LAYER,ROW,COL MAX. CHANGE LAYER,ROW,COL MAX. CHANGE LAYER,ROW,COL MAX. CHANGE LAYER,ROW,COL MAX. CHANGE LAYER,ROW,COL
 ------------------------------------------------------------------------------------------------------------------------------------
<<<<<<< Updated upstream
   0.2480E-02 (  2,  3, 56)  0.1024E-03 (  3,  2, 34)  0.4730E-05 (  4,  2, 33)  0.2932E-06 (  3,  2, 31)  0.1347E-07 (  4,  2, 31)
=======
   0.2913E-02 (  2,  1, 43)  0.1756E-03 (  3,  2, 37)  0.6168E-05 (  4,  2, 37)  0.3958E-06 (  3,  2, 37)  0.1645E-07 (  4,  2, 37)

 OUTPUT CONTROL FOR STRESS PERIOD    1   TIME STEP  71
    SAVE HEAD FOR ALL LAYERS
    SAVE BUDGET
 UBDSV2 SAVING "   CONSTANT HEAD" ON UNIT  53 AT TIME STEP 71, STRESS PERIOD   1
 UBDSV1 SAVING "FLOW RIGHT FACE " ON UNIT  53 AT TIME STEP 71, STRESS PERIOD   1
 UBDSV1 SAVING "FLOW FRONT FACE " ON UNIT  53 AT TIME STEP 71, STRESS PERIOD   1
 UBDSV1 SAVING "FLOW LOWER FACE " ON UNIT  53 AT TIME STEP 71, STRESS PERIOD   1
 UBDSV1 SAVING "            DCDT" ON UNIT  53 AT TIME STEP 71, STRESS PERIOD   1
>>>>>>> Stashed changes

 HEAD WILL BE SAVED ON UNIT   51 AT END OF TIME STEP  71, STRESS PERIOD    1


                                          ================================================
                                                         FROM TIME =  0.71000     TO   0.72000    

 
 SOLVING FOR HEAD 
 FLOW MODEL IS TRANSIENT
 FLOW MODEL CONTAINS CONSTANT-HEAD CELLS


 MAXIMUM STEPSIZE DURING WHICH ANY PARTICLE CANNOT MOVE MORE THAN ONE CELL
<<<<<<< Updated upstream
 =  1.100    (WHEN MIN. R.F.=1)  AT K=   3, I=   2, J=  29

 MAXIMUM STEPSIZE WHICH MEETS STABILITY CRITERION OF THE ADVECTION TERM
 (FOR PURE FINITE-DIFFERENCE OPTION, MIXELM=0) 
 = 0.7632    (WHEN MIN. R.F.=1)  AT K=   3, I=   2, J=  28
=======
 =  1.259    (WHEN MIN. R.F.=1)  AT K=   3, I=   2, J=  31

 MAXIMUM STEPSIZE WHICH MEETS STABILITY CRITERION OF THE ADVECTION TERM
 (FOR PURE FINITE-DIFFERENCE OPTION, MIXELM=0) 
 = 0.8409    (WHEN MIN. R.F.=1)  AT K=   3, I=   2, J=  30
>>>>>>> Stashed changes


 TOTAL NUMBER OF POINT SOURCES/SINKS PRESENT IN THE FLOW MODEL =   240

 MAXIMUM STEPSIZE WHICH MEETS STABILITY CRITERION OF THE SINK & SOURCE TERM
 = 0.1000E+31(WHEN MIN. R.F.=1)  AT K=   0, I=   0, J=   0

 MAXIMUM STEPSIZE WHICH MEETS STABILITY CRITERION OF THE DISPERSION TERM
<<<<<<< Updated upstream
 = 0.4152E-01(WHEN MIN. R.F.=1)  AT K=   3, I=   2, J=  31
=======
 = 0.4507E-01(WHEN MIN. R.F.=1)  AT K=   3, I=   2, J=  30
>>>>>>> Stashed changes


     1 CALLS TO GCG PACKAGE FOR TRANSPORT TIME STEP   1 IN FLOW TIME STEP  72 STRESS PERIOD   1
     5 TOTAL ITERATIONS
  MAXIMUM CONCENTRATION CHANGES FOR EACH ITERATION:
  MAX. CHANGE LAYER,ROW,COL MAX. CHANGE LAYER,ROW,COL MAX. CHANGE LAYER,ROW,COL MAX. CHANGE LAYER,ROW,COL MAX. CHANGE LAYER,ROW,COL
 ------------------------------------------------------------------------------------------------------------------------------------
<<<<<<< Updated upstream
   0.2462E-02 (  2,  3, 56)  0.1018E-03 (  3,  2, 34)  0.4699E-05 (  4,  2, 33)  0.2913E-06 (  3,  2, 31)  0.1338E-07 (  4,  2, 31)
=======
   0.2879E-02 (  2,  1, 43)  0.1743E-03 (  3,  2, 37)  0.6115E-05 (  4,  2, 37)  0.3932E-06 (  3,  2, 37)  0.1636E-07 (  4,  2, 37)

 OUTPUT CONTROL FOR STRESS PERIOD    1   TIME STEP  72
    SAVE HEAD FOR ALL LAYERS
    SAVE BUDGET
 UBDSV2 SAVING "   CONSTANT HEAD" ON UNIT  53 AT TIME STEP 72, STRESS PERIOD   1
 UBDSV1 SAVING "FLOW RIGHT FACE " ON UNIT  53 AT TIME STEP 72, STRESS PERIOD   1
 UBDSV1 SAVING "FLOW FRONT FACE " ON UNIT  53 AT TIME STEP 72, STRESS PERIOD   1
 UBDSV1 SAVING "FLOW LOWER FACE " ON UNIT  53 AT TIME STEP 72, STRESS PERIOD   1
 UBDSV1 SAVING "            DCDT" ON UNIT  53 AT TIME STEP 72, STRESS PERIOD   1
>>>>>>> Stashed changes

 HEAD WILL BE SAVED ON UNIT   51 AT END OF TIME STEP  72, STRESS PERIOD    1


                                          ================================================
                                                         FROM TIME =  0.72000     TO   0.73000    

 
 SOLVING FOR HEAD 
 FLOW MODEL IS TRANSIENT
 FLOW MODEL CONTAINS CONSTANT-HEAD CELLS


 MAXIMUM STEPSIZE DURING WHICH ANY PARTICLE CANNOT MOVE MORE THAN ONE CELL
<<<<<<< Updated upstream
 =  1.100    (WHEN MIN. R.F.=1)  AT K=   3, I=   2, J=  29

 MAXIMUM STEPSIZE WHICH MEETS STABILITY CRITERION OF THE ADVECTION TERM
 (FOR PURE FINITE-DIFFERENCE OPTION, MIXELM=0) 
 = 0.7634    (WHEN MIN. R.F.=1)  AT K=   3, I=   2, J=  28
=======
 =  1.259    (WHEN MIN. R.F.=1)  AT K=   3, I=   2, J=  31

 MAXIMUM STEPSIZE WHICH MEETS STABILITY CRITERION OF THE ADVECTION TERM
 (FOR PURE FINITE-DIFFERENCE OPTION, MIXELM=0) 
 = 0.8412    (WHEN MIN. R.F.=1)  AT K=   3, I=   2, J=  30
>>>>>>> Stashed changes


 TOTAL NUMBER OF POINT SOURCES/SINKS PRESENT IN THE FLOW MODEL =   240

 MAXIMUM STEPSIZE WHICH MEETS STABILITY CRITERION OF THE SINK & SOURCE TERM
 = 0.1000E+31(WHEN MIN. R.F.=1)  AT K=   0, I=   0, J=   0

 MAXIMUM STEPSIZE WHICH MEETS STABILITY CRITERION OF THE DISPERSION TERM
<<<<<<< Updated upstream
 = 0.4154E-01(WHEN MIN. R.F.=1)  AT K=   3, I=   2, J=  31
=======
 = 0.4508E-01(WHEN MIN. R.F.=1)  AT K=   3, I=   2, J=  30
>>>>>>> Stashed changes


     1 CALLS TO GCG PACKAGE FOR TRANSPORT TIME STEP   1 IN FLOW TIME STEP  73 STRESS PERIOD   1
     5 TOTAL ITERATIONS
  MAXIMUM CONCENTRATION CHANGES FOR EACH ITERATION:
  MAX. CHANGE LAYER,ROW,COL MAX. CHANGE LAYER,ROW,COL MAX. CHANGE LAYER,ROW,COL MAX. CHANGE LAYER,ROW,COL MAX. CHANGE LAYER,ROW,COL
 ------------------------------------------------------------------------------------------------------------------------------------
<<<<<<< Updated upstream
   0.2445E-02 (  2,  3, 56)  0.1011E-03 (  3,  2, 34)  0.4670E-05 (  4,  2, 33)  0.2894E-06 (  3,  2, 31)  0.1329E-07 (  4,  2, 31)
=======
   0.2846E-02 (  2,  1, 43)  0.1730E-03 (  3,  2, 37)  0.6064E-05 (  4,  2, 37)  0.3907E-06 (  3,  2, 37)  0.1627E-07 (  4,  2, 37)

 OUTPUT CONTROL FOR STRESS PERIOD    1   TIME STEP  73
    SAVE HEAD FOR ALL LAYERS
    SAVE BUDGET
 UBDSV2 SAVING "   CONSTANT HEAD" ON UNIT  53 AT TIME STEP 73, STRESS PERIOD   1
 UBDSV1 SAVING "FLOW RIGHT FACE " ON UNIT  53 AT TIME STEP 73, STRESS PERIOD   1
 UBDSV1 SAVING "FLOW FRONT FACE " ON UNIT  53 AT TIME STEP 73, STRESS PERIOD   1
 UBDSV1 SAVING "FLOW LOWER FACE " ON UNIT  53 AT TIME STEP 73, STRESS PERIOD   1
 UBDSV1 SAVING "            DCDT" ON UNIT  53 AT TIME STEP 73, STRESS PERIOD   1
>>>>>>> Stashed changes

 HEAD WILL BE SAVED ON UNIT   51 AT END OF TIME STEP  73, STRESS PERIOD    1


                                          ================================================
                                                         FROM TIME =  0.73000     TO   0.74000    

 
 SOLVING FOR HEAD 
 FLOW MODEL IS TRANSIENT
 FLOW MODEL CONTAINS CONSTANT-HEAD CELLS


 MAXIMUM STEPSIZE DURING WHICH ANY PARTICLE CANNOT MOVE MORE THAN ONE CELL
<<<<<<< Updated upstream
 =  1.101    (WHEN MIN. R.F.=1)  AT K=   3, I=   2, J=  29

 MAXIMUM STEPSIZE WHICH MEETS STABILITY CRITERION OF THE ADVECTION TERM
 (FOR PURE FINITE-DIFFERENCE OPTION, MIXELM=0) 
 = 0.7637    (WHEN MIN. R.F.=1)  AT K=   3, I=   2, J=  28
=======
 =  1.259    (WHEN MIN. R.F.=1)  AT K=   3, I=   2, J=  31

 MAXIMUM STEPSIZE WHICH MEETS STABILITY CRITERION OF THE ADVECTION TERM
 (FOR PURE FINITE-DIFFERENCE OPTION, MIXELM=0) 
 = 0.8414    (WHEN MIN. R.F.=1)  AT K=   3, I=   2, J=  30
>>>>>>> Stashed changes


 TOTAL NUMBER OF POINT SOURCES/SINKS PRESENT IN THE FLOW MODEL =   240

 MAXIMUM STEPSIZE WHICH MEETS STABILITY CRITERION OF THE SINK & SOURCE TERM
 = 0.1000E+31(WHEN MIN. R.F.=1)  AT K=   0, I=   0, J=   0

 MAXIMUM STEPSIZE WHICH MEETS STABILITY CRITERION OF THE DISPERSION TERM
<<<<<<< Updated upstream
 = 0.4155E-01(WHEN MIN. R.F.=1)  AT K=   3, I=   2, J=  31
=======
 = 0.4510E-01(WHEN MIN. R.F.=1)  AT K=   3, I=   2, J=  30
>>>>>>> Stashed changes


     1 CALLS TO GCG PACKAGE FOR TRANSPORT TIME STEP   1 IN FLOW TIME STEP  74 STRESS PERIOD   1
     5 TOTAL ITERATIONS
  MAXIMUM CONCENTRATION CHANGES FOR EACH ITERATION:
  MAX. CHANGE LAYER,ROW,COL MAX. CHANGE LAYER,ROW,COL MAX. CHANGE LAYER,ROW,COL MAX. CHANGE LAYER,ROW,COL MAX. CHANGE LAYER,ROW,COL
 ------------------------------------------------------------------------------------------------------------------------------------
<<<<<<< Updated upstream
   0.2428E-02 (  2,  3, 56)  0.1005E-03 (  3,  2, 34)  0.4640E-05 (  4,  2, 33)  0.2876E-06 (  3,  2, 31)  0.1321E-07 (  4,  2, 31)
=======
   0.2813E-02 (  2,  1, 43)  0.1718E-03 (  3,  2, 37)  0.6014E-05 (  4,  2, 37)  0.3882E-06 (  3,  2, 37)  0.1618E-07 (  4,  2, 37)
>>>>>>> Stashed changes

 OUTPUT CONTROL FOR STRESS PERIOD    1   TIME STEP  74
    SAVE HEAD FOR ALL LAYERS
    SAVE BUDGET
 UBDSV2 SAVING "   CONSTANT HEAD" ON UNIT  53 AT TIME STEP 74, STRESS PERIOD   1
 UBDSV1 SAVING "FLOW RIGHT FACE " ON UNIT  53 AT TIME STEP 74, STRESS PERIOD   1
 UBDSV1 SAVING "FLOW FRONT FACE " ON UNIT  53 AT TIME STEP 74, STRESS PERIOD   1
 UBDSV1 SAVING "FLOW LOWER FACE " ON UNIT  53 AT TIME STEP 74, STRESS PERIOD   1
 UBDSV1 SAVING "            DCDT" ON UNIT  53 AT TIME STEP 74, STRESS PERIOD   1

 HEAD WILL BE SAVED ON UNIT   51 AT END OF TIME STEP  74, STRESS PERIOD    1


                                          ================================================
                                                         FROM TIME =  0.74000     TO   0.75000    

 
 SOLVING FOR HEAD 
 FLOW MODEL IS TRANSIENT
 FLOW MODEL CONTAINS CONSTANT-HEAD CELLS


 MAXIMUM STEPSIZE DURING WHICH ANY PARTICLE CANNOT MOVE MORE THAN ONE CELL
<<<<<<< Updated upstream
 =  1.101    (WHEN MIN. R.F.=1)  AT K=   3, I=   2, J=  29

 MAXIMUM STEPSIZE WHICH MEETS STABILITY CRITERION OF THE ADVECTION TERM
 (FOR PURE FINITE-DIFFERENCE OPTION, MIXELM=0) 
 = 0.7639    (WHEN MIN. R.F.=1)  AT K=   3, I=   2, J=  28
=======
 =  1.260    (WHEN MIN. R.F.=1)  AT K=   3, I=   2, J=  31

 MAXIMUM STEPSIZE WHICH MEETS STABILITY CRITERION OF THE ADVECTION TERM
 (FOR PURE FINITE-DIFFERENCE OPTION, MIXELM=0) 
 = 0.8417    (WHEN MIN. R.F.=1)  AT K=   3, I=   2, J=  30
>>>>>>> Stashed changes


 TOTAL NUMBER OF POINT SOURCES/SINKS PRESENT IN THE FLOW MODEL =   240

 MAXIMUM STEPSIZE WHICH MEETS STABILITY CRITERION OF THE SINK & SOURCE TERM
 = 0.1000E+31(WHEN MIN. R.F.=1)  AT K=   0, I=   0, J=   0

 MAXIMUM STEPSIZE WHICH MEETS STABILITY CRITERION OF THE DISPERSION TERM
<<<<<<< Updated upstream
 = 0.4157E-01(WHEN MIN. R.F.=1)  AT K=   3, I=   2, J=  31
=======
 = 0.4511E-01(WHEN MIN. R.F.=1)  AT K=   3, I=   2, J=  30
>>>>>>> Stashed changes


     1 CALLS TO GCG PACKAGE FOR TRANSPORT TIME STEP   1 IN FLOW TIME STEP  75 STRESS PERIOD   1
     5 TOTAL ITERATIONS
  MAXIMUM CONCENTRATION CHANGES FOR EACH ITERATION:
  MAX. CHANGE LAYER,ROW,COL MAX. CHANGE LAYER,ROW,COL MAX. CHANGE LAYER,ROW,COL MAX. CHANGE LAYER,ROW,COL MAX. CHANGE LAYER,ROW,COL
 ------------------------------------------------------------------------------------------------------------------------------------
<<<<<<< Updated upstream
   0.2411E-02 (  2,  3, 56)  0.9992E-04 (  3,  2, 34)  0.4611E-05 (  4,  2, 33)  0.2858E-06 (  3,  2, 31)  0.1313E-07 (  4,  2, 31)
=======
   0.2781E-02 (  2,  1, 43)  0.1705E-03 (  3,  2, 37)  0.5964E-05 (  4,  2, 37)  0.3857E-06 (  3,  2, 37)  0.1610E-07 (  4,  2, 37)

 OUTPUT CONTROL FOR STRESS PERIOD    1   TIME STEP  75
    SAVE HEAD FOR ALL LAYERS
    SAVE BUDGET
 UBDSV2 SAVING "   CONSTANT HEAD" ON UNIT  53 AT TIME STEP 75, STRESS PERIOD   1
 UBDSV1 SAVING "FLOW RIGHT FACE " ON UNIT  53 AT TIME STEP 75, STRESS PERIOD   1
 UBDSV1 SAVING "FLOW FRONT FACE " ON UNIT  53 AT TIME STEP 75, STRESS PERIOD   1
 UBDSV1 SAVING "FLOW LOWER FACE " ON UNIT  53 AT TIME STEP 75, STRESS PERIOD   1
 UBDSV1 SAVING "            DCDT" ON UNIT  53 AT TIME STEP 75, STRESS PERIOD   1
>>>>>>> Stashed changes

 HEAD WILL BE SAVED ON UNIT   51 AT END OF TIME STEP  75, STRESS PERIOD    1


                                          ================================================
                                                         FROM TIME =  0.75000     TO   0.76000    

 
 SOLVING FOR HEAD 
 FLOW MODEL IS TRANSIENT
 FLOW MODEL CONTAINS CONSTANT-HEAD CELLS


 MAXIMUM STEPSIZE DURING WHICH ANY PARTICLE CANNOT MOVE MORE THAN ONE CELL
<<<<<<< Updated upstream
 =  1.101    (WHEN MIN. R.F.=1)  AT K=   3, I=   2, J=  29

 MAXIMUM STEPSIZE WHICH MEETS STABILITY CRITERION OF THE ADVECTION TERM
 (FOR PURE FINITE-DIFFERENCE OPTION, MIXELM=0) 
 = 0.7642    (WHEN MIN. R.F.=1)  AT K=   3, I=   2, J=  28
=======
 =  1.260    (WHEN MIN. R.F.=1)  AT K=   3, I=   2, J=  31

 MAXIMUM STEPSIZE WHICH MEETS STABILITY CRITERION OF THE ADVECTION TERM
 (FOR PURE FINITE-DIFFERENCE OPTION, MIXELM=0) 
 = 0.8420    (WHEN MIN. R.F.=1)  AT K=   3, I=   2, J=  30
>>>>>>> Stashed changes


 TOTAL NUMBER OF POINT SOURCES/SINKS PRESENT IN THE FLOW MODEL =   240

 MAXIMUM STEPSIZE WHICH MEETS STABILITY CRITERION OF THE SINK & SOURCE TERM
 = 0.1000E+31(WHEN MIN. R.F.=1)  AT K=   0, I=   0, J=   0

 MAXIMUM STEPSIZE WHICH MEETS STABILITY CRITERION OF THE DISPERSION TERM
<<<<<<< Updated upstream
 = 0.4158E-01(WHEN MIN. R.F.=1)  AT K=   3, I=   2, J=  31
=======
 = 0.4513E-01(WHEN MIN. R.F.=1)  AT K=   3, I=   2, J=  30
>>>>>>> Stashed changes


     1 CALLS TO GCG PACKAGE FOR TRANSPORT TIME STEP   1 IN FLOW TIME STEP  76 STRESS PERIOD   1
     5 TOTAL ITERATIONS
  MAXIMUM CONCENTRATION CHANGES FOR EACH ITERATION:
  MAX. CHANGE LAYER,ROW,COL MAX. CHANGE LAYER,ROW,COL MAX. CHANGE LAYER,ROW,COL MAX. CHANGE LAYER,ROW,COL MAX. CHANGE LAYER,ROW,COL
 ------------------------------------------------------------------------------------------------------------------------------------
<<<<<<< Updated upstream
   0.2395E-02 (  2,  3, 56)  0.9932E-04 (  3,  2, 34)  0.4583E-05 (  4,  2, 33)  0.2840E-06 (  3,  2, 31)  0.1304E-07 (  4,  2, 31)
=======
   0.2749E-02 (  2,  1, 43)  0.1693E-03 (  3,  2, 37)  0.5916E-05 (  4,  2, 37)  0.3832E-06 (  3,  2, 37)  0.1601E-07 (  4,  2, 37)

 OUTPUT CONTROL FOR STRESS PERIOD    1   TIME STEP  76
    SAVE HEAD FOR ALL LAYERS
    SAVE BUDGET
 UBDSV2 SAVING "   CONSTANT HEAD" ON UNIT  53 AT TIME STEP 76, STRESS PERIOD   1
 UBDSV1 SAVING "FLOW RIGHT FACE " ON UNIT  53 AT TIME STEP 76, STRESS PERIOD   1
 UBDSV1 SAVING "FLOW FRONT FACE " ON UNIT  53 AT TIME STEP 76, STRESS PERIOD   1
 UBDSV1 SAVING "FLOW LOWER FACE " ON UNIT  53 AT TIME STEP 76, STRESS PERIOD   1
 UBDSV1 SAVING "            DCDT" ON UNIT  53 AT TIME STEP 76, STRESS PERIOD   1
>>>>>>> Stashed changes

 HEAD WILL BE SAVED ON UNIT   51 AT END OF TIME STEP  76, STRESS PERIOD    1


                                          ================================================
                                                         FROM TIME =  0.76000     TO   0.77000    

 
 SOLVING FOR HEAD 
 FLOW MODEL IS TRANSIENT
 FLOW MODEL CONTAINS CONSTANT-HEAD CELLS


 MAXIMUM STEPSIZE DURING WHICH ANY PARTICLE CANNOT MOVE MORE THAN ONE CELL
<<<<<<< Updated upstream
 =  1.102    (WHEN MIN. R.F.=1)  AT K=   3, I=   2, J=  29

 MAXIMUM STEPSIZE WHICH MEETS STABILITY CRITERION OF THE ADVECTION TERM
 (FOR PURE FINITE-DIFFERENCE OPTION, MIXELM=0) 
 = 0.7644    (WHEN MIN. R.F.=1)  AT K=   3, I=   2, J=  28
=======
 =  1.261    (WHEN MIN. R.F.=1)  AT K=   3, I=   2, J=  31

 MAXIMUM STEPSIZE WHICH MEETS STABILITY CRITERION OF THE ADVECTION TERM
 (FOR PURE FINITE-DIFFERENCE OPTION, MIXELM=0) 
 = 0.8422    (WHEN MIN. R.F.=1)  AT K=   3, I=   2, J=  30
>>>>>>> Stashed changes


 TOTAL NUMBER OF POINT SOURCES/SINKS PRESENT IN THE FLOW MODEL =   240

 MAXIMUM STEPSIZE WHICH MEETS STABILITY CRITERION OF THE SINK & SOURCE TERM
 = 0.1000E+31(WHEN MIN. R.F.=1)  AT K=   0, I=   0, J=   0

 MAXIMUM STEPSIZE WHICH MEETS STABILITY CRITERION OF THE DISPERSION TERM
<<<<<<< Updated upstream
 = 0.4160E-01(WHEN MIN. R.F.=1)  AT K=   3, I=   2, J=  31
=======
 = 0.4514E-01(WHEN MIN. R.F.=1)  AT K=   3, I=   2, J=  30
>>>>>>> Stashed changes


     1 CALLS TO GCG PACKAGE FOR TRANSPORT TIME STEP   1 IN FLOW TIME STEP  77 STRESS PERIOD   1
     5 TOTAL ITERATIONS
  MAXIMUM CONCENTRATION CHANGES FOR EACH ITERATION:
  MAX. CHANGE LAYER,ROW,COL MAX. CHANGE LAYER,ROW,COL MAX. CHANGE LAYER,ROW,COL MAX. CHANGE LAYER,ROW,COL MAX. CHANGE LAYER,ROW,COL
 ------------------------------------------------------------------------------------------------------------------------------------
<<<<<<< Updated upstream
   0.2378E-02 (  2,  3, 56)  0.9874E-04 (  3,  2, 34)  0.4555E-05 (  4,  2, 33)  0.2823E-06 (  3,  2, 31)  0.1296E-07 (  4,  2, 31)
=======
   0.2717E-02 (  2,  1, 43)  0.1681E-03 (  3,  2, 37)  0.5869E-05 (  4,  2, 37)  0.3807E-06 (  3,  2, 37)  0.1592E-07 (  4,  2, 37)

 OUTPUT CONTROL FOR STRESS PERIOD    1   TIME STEP  77
    SAVE HEAD FOR ALL LAYERS
    SAVE BUDGET
 UBDSV2 SAVING "   CONSTANT HEAD" ON UNIT  53 AT TIME STEP 77, STRESS PERIOD   1
 UBDSV1 SAVING "FLOW RIGHT FACE " ON UNIT  53 AT TIME STEP 77, STRESS PERIOD   1
 UBDSV1 SAVING "FLOW FRONT FACE " ON UNIT  53 AT TIME STEP 77, STRESS PERIOD   1
 UBDSV1 SAVING "FLOW LOWER FACE " ON UNIT  53 AT TIME STEP 77, STRESS PERIOD   1
 UBDSV1 SAVING "            DCDT" ON UNIT  53 AT TIME STEP 77, STRESS PERIOD   1
>>>>>>> Stashed changes

 HEAD WILL BE SAVED ON UNIT   51 AT END OF TIME STEP  77, STRESS PERIOD    1


                                          ================================================
                                                         FROM TIME =  0.77000     TO   0.78000    

 
 SOLVING FOR HEAD 
 FLOW MODEL IS TRANSIENT
 FLOW MODEL CONTAINS CONSTANT-HEAD CELLS


 MAXIMUM STEPSIZE DURING WHICH ANY PARTICLE CANNOT MOVE MORE THAN ONE CELL
<<<<<<< Updated upstream
 =  1.102    (WHEN MIN. R.F.=1)  AT K=   3, I=   2, J=  29

 MAXIMUM STEPSIZE WHICH MEETS STABILITY CRITERION OF THE ADVECTION TERM
 (FOR PURE FINITE-DIFFERENCE OPTION, MIXELM=0) 
 = 0.7646    (WHEN MIN. R.F.=1)  AT K=   3, I=   2, J=  28
=======
 =  1.261    (WHEN MIN. R.F.=1)  AT K=   3, I=   2, J=  31

 MAXIMUM STEPSIZE WHICH MEETS STABILITY CRITERION OF THE ADVECTION TERM
 (FOR PURE FINITE-DIFFERENCE OPTION, MIXELM=0) 
 = 0.8425    (WHEN MIN. R.F.=1)  AT K=   3, I=   2, J=  30
>>>>>>> Stashed changes


 TOTAL NUMBER OF POINT SOURCES/SINKS PRESENT IN THE FLOW MODEL =   240

 MAXIMUM STEPSIZE WHICH MEETS STABILITY CRITERION OF THE SINK & SOURCE TERM
 = 0.1000E+31(WHEN MIN. R.F.=1)  AT K=   0, I=   0, J=   0

 MAXIMUM STEPSIZE WHICH MEETS STABILITY CRITERION OF THE DISPERSION TERM
<<<<<<< Updated upstream
 = 0.4161E-01(WHEN MIN. R.F.=1)  AT K=   3, I=   2, J=  31
=======
 = 0.4515E-01(WHEN MIN. R.F.=1)  AT K=   3, I=   2, J=  30
>>>>>>> Stashed changes


     1 CALLS TO GCG PACKAGE FOR TRANSPORT TIME STEP   1 IN FLOW TIME STEP  78 STRESS PERIOD   1
     5 TOTAL ITERATIONS
  MAXIMUM CONCENTRATION CHANGES FOR EACH ITERATION:
  MAX. CHANGE LAYER,ROW,COL MAX. CHANGE LAYER,ROW,COL MAX. CHANGE LAYER,ROW,COL MAX. CHANGE LAYER,ROW,COL MAX. CHANGE LAYER,ROW,COL
 ------------------------------------------------------------------------------------------------------------------------------------
<<<<<<< Updated upstream
   0.2361E-02 (  2,  3, 56)  0.9816E-04 (  3,  2, 34)  0.4527E-05 (  4,  2, 33)  0.2805E-06 (  3,  2, 31)  0.1288E-07 (  4,  2, 31)
=======
   0.2687E-02 (  2,  1, 43)  0.1669E-03 (  3,  2, 37)  0.5822E-05 (  4,  2, 37)  0.3783E-06 (  3,  2, 37)  0.1583E-07 (  4,  2, 37)
>>>>>>> Stashed changes

 OUTPUT CONTROL FOR STRESS PERIOD    1   TIME STEP  78
    SAVE HEAD FOR ALL LAYERS
    SAVE BUDGET
 UBDSV2 SAVING "   CONSTANT HEAD" ON UNIT  53 AT TIME STEP 78, STRESS PERIOD   1
 UBDSV1 SAVING "FLOW RIGHT FACE " ON UNIT  53 AT TIME STEP 78, STRESS PERIOD   1
 UBDSV1 SAVING "FLOW FRONT FACE " ON UNIT  53 AT TIME STEP 78, STRESS PERIOD   1
 UBDSV1 SAVING "FLOW LOWER FACE " ON UNIT  53 AT TIME STEP 78, STRESS PERIOD   1
 UBDSV1 SAVING "            DCDT" ON UNIT  53 AT TIME STEP 78, STRESS PERIOD   1

 HEAD WILL BE SAVED ON UNIT   51 AT END OF TIME STEP  78, STRESS PERIOD    1


                                          ================================================
                                                         FROM TIME =  0.78000     TO   0.79000    

 
 SOLVING FOR HEAD 
 FLOW MODEL IS TRANSIENT
 FLOW MODEL CONTAINS CONSTANT-HEAD CELLS


 MAXIMUM STEPSIZE DURING WHICH ANY PARTICLE CANNOT MOVE MORE THAN ONE CELL
<<<<<<< Updated upstream
 =  1.103    (WHEN MIN. R.F.=1)  AT K=   3, I=   2, J=  29

 MAXIMUM STEPSIZE WHICH MEETS STABILITY CRITERION OF THE ADVECTION TERM
 (FOR PURE FINITE-DIFFERENCE OPTION, MIXELM=0) 
 = 0.7649    (WHEN MIN. R.F.=1)  AT K=   3, I=   2, J=  28
=======
 =  1.261    (WHEN MIN. R.F.=1)  AT K=   3, I=   2, J=  31

 MAXIMUM STEPSIZE WHICH MEETS STABILITY CRITERION OF THE ADVECTION TERM
 (FOR PURE FINITE-DIFFERENCE OPTION, MIXELM=0) 
 = 0.8428    (WHEN MIN. R.F.=1)  AT K=   3, I=   2, J=  30
>>>>>>> Stashed changes


 TOTAL NUMBER OF POINT SOURCES/SINKS PRESENT IN THE FLOW MODEL =   240

 MAXIMUM STEPSIZE WHICH MEETS STABILITY CRITERION OF THE SINK & SOURCE TERM
 = 0.1000E+31(WHEN MIN. R.F.=1)  AT K=   0, I=   0, J=   0

 MAXIMUM STEPSIZE WHICH MEETS STABILITY CRITERION OF THE DISPERSION TERM
<<<<<<< Updated upstream
 = 0.4163E-01(WHEN MIN. R.F.=1)  AT K=   3, I=   2, J=  31
=======
 = 0.4517E-01(WHEN MIN. R.F.=1)  AT K=   3, I=   2, J=  30
>>>>>>> Stashed changes


     1 CALLS TO GCG PACKAGE FOR TRANSPORT TIME STEP   1 IN FLOW TIME STEP  79 STRESS PERIOD   1
     5 TOTAL ITERATIONS
  MAXIMUM CONCENTRATION CHANGES FOR EACH ITERATION:
  MAX. CHANGE LAYER,ROW,COL MAX. CHANGE LAYER,ROW,COL MAX. CHANGE LAYER,ROW,COL MAX. CHANGE LAYER,ROW,COL MAX. CHANGE LAYER,ROW,COL
 ------------------------------------------------------------------------------------------------------------------------------------
<<<<<<< Updated upstream
   0.2345E-02 (  2,  3, 56)  0.9759E-04 (  3,  2, 34)  0.4500E-05 (  4,  2, 33)  0.2788E-06 (  3,  2, 31)  0.1280E-07 (  4,  2, 31)
=======
   0.2656E-02 (  2,  1, 43)  0.1657E-03 (  3,  2, 37)  0.5777E-05 (  4,  2, 37)  0.3758E-06 (  3,  2, 37)  0.1574E-07 (  4,  2, 37)

 OUTPUT CONTROL FOR STRESS PERIOD    1   TIME STEP  79
    SAVE HEAD FOR ALL LAYERS
    SAVE BUDGET
 UBDSV2 SAVING "   CONSTANT HEAD" ON UNIT  53 AT TIME STEP 79, STRESS PERIOD   1
 UBDSV1 SAVING "FLOW RIGHT FACE " ON UNIT  53 AT TIME STEP 79, STRESS PERIOD   1
 UBDSV1 SAVING "FLOW FRONT FACE " ON UNIT  53 AT TIME STEP 79, STRESS PERIOD   1
 UBDSV1 SAVING "FLOW LOWER FACE " ON UNIT  53 AT TIME STEP 79, STRESS PERIOD   1
 UBDSV1 SAVING "            DCDT" ON UNIT  53 AT TIME STEP 79, STRESS PERIOD   1
>>>>>>> Stashed changes

 HEAD WILL BE SAVED ON UNIT   51 AT END OF TIME STEP  79, STRESS PERIOD    1


                                          ================================================
                                                         FROM TIME =  0.79000     TO   0.80000    

 
 SOLVING FOR HEAD 
 FLOW MODEL IS TRANSIENT
 FLOW MODEL CONTAINS CONSTANT-HEAD CELLS


 MAXIMUM STEPSIZE DURING WHICH ANY PARTICLE CANNOT MOVE MORE THAN ONE CELL
<<<<<<< Updated upstream
 =  1.103    (WHEN MIN. R.F.=1)  AT K=   3, I=   2, J=  29

 MAXIMUM STEPSIZE WHICH MEETS STABILITY CRITERION OF THE ADVECTION TERM
 (FOR PURE FINITE-DIFFERENCE OPTION, MIXELM=0) 
 = 0.7651    (WHEN MIN. R.F.=1)  AT K=   3, I=   2, J=  28
=======
 =  1.262    (WHEN MIN. R.F.=1)  AT K=   3, I=   2, J=  31

 MAXIMUM STEPSIZE WHICH MEETS STABILITY CRITERION OF THE ADVECTION TERM
 (FOR PURE FINITE-DIFFERENCE OPTION, MIXELM=0) 
 = 0.8430    (WHEN MIN. R.F.=1)  AT K=   3, I=   2, J=  30
>>>>>>> Stashed changes


 TOTAL NUMBER OF POINT SOURCES/SINKS PRESENT IN THE FLOW MODEL =   240

 MAXIMUM STEPSIZE WHICH MEETS STABILITY CRITERION OF THE SINK & SOURCE TERM
 = 0.1000E+31(WHEN MIN. R.F.=1)  AT K=   0, I=   0, J=   0

 MAXIMUM STEPSIZE WHICH MEETS STABILITY CRITERION OF THE DISPERSION TERM
<<<<<<< Updated upstream
 = 0.4164E-01(WHEN MIN. R.F.=1)  AT K=   3, I=   2, J=  31
=======
 = 0.4518E-01(WHEN MIN. R.F.=1)  AT K=   3, I=   2, J=  30
>>>>>>> Stashed changes


     1 CALLS TO GCG PACKAGE FOR TRANSPORT TIME STEP   1 IN FLOW TIME STEP  80 STRESS PERIOD   1
     5 TOTAL ITERATIONS
  MAXIMUM CONCENTRATION CHANGES FOR EACH ITERATION:
  MAX. CHANGE LAYER,ROW,COL MAX. CHANGE LAYER,ROW,COL MAX. CHANGE LAYER,ROW,COL MAX. CHANGE LAYER,ROW,COL MAX. CHANGE LAYER,ROW,COL
 ------------------------------------------------------------------------------------------------------------------------------------
<<<<<<< Updated upstream
   0.2328E-02 (  2,  3, 56)  0.9702E-04 (  3,  2, 34)  0.4473E-05 (  4,  2, 33)  0.2772E-06 (  3,  2, 31)  0.1272E-07 (  4,  2, 31)
=======
   0.2626E-02 (  2,  1, 43)  0.1646E-03 (  3,  2, 37)  0.5732E-05 (  4,  2, 37)  0.3734E-06 (  3,  2, 37)  0.1565E-07 (  4,  2, 37)

 OUTPUT CONTROL FOR STRESS PERIOD    1   TIME STEP  80
    SAVE HEAD FOR ALL LAYERS
    SAVE BUDGET
 UBDSV2 SAVING "   CONSTANT HEAD" ON UNIT  53 AT TIME STEP 80, STRESS PERIOD   1
 UBDSV1 SAVING "FLOW RIGHT FACE " ON UNIT  53 AT TIME STEP 80, STRESS PERIOD   1
 UBDSV1 SAVING "FLOW FRONT FACE " ON UNIT  53 AT TIME STEP 80, STRESS PERIOD   1
 UBDSV1 SAVING "FLOW LOWER FACE " ON UNIT  53 AT TIME STEP 80, STRESS PERIOD   1
 UBDSV1 SAVING "            DCDT" ON UNIT  53 AT TIME STEP 80, STRESS PERIOD   1
>>>>>>> Stashed changes

 HEAD WILL BE SAVED ON UNIT   51 AT END OF TIME STEP  80, STRESS PERIOD    1


                                          ================================================
                                                         FROM TIME =  0.80000     TO   0.81000    

 
 SOLVING FOR HEAD 
 FLOW MODEL IS TRANSIENT
 FLOW MODEL CONTAINS CONSTANT-HEAD CELLS


 MAXIMUM STEPSIZE DURING WHICH ANY PARTICLE CANNOT MOVE MORE THAN ONE CELL
<<<<<<< Updated upstream
 =  1.103    (WHEN MIN. R.F.=1)  AT K=   3, I=   2, J=  29

 MAXIMUM STEPSIZE WHICH MEETS STABILITY CRITERION OF THE ADVECTION TERM
 (FOR PURE FINITE-DIFFERENCE OPTION, MIXELM=0) 
 = 0.7654    (WHEN MIN. R.F.=1)  AT K=   3, I=   2, J=  28
=======
 =  1.262    (WHEN MIN. R.F.=1)  AT K=   3, I=   2, J=  31

 MAXIMUM STEPSIZE WHICH MEETS STABILITY CRITERION OF THE ADVECTION TERM
 (FOR PURE FINITE-DIFFERENCE OPTION, MIXELM=0) 
 = 0.8433    (WHEN MIN. R.F.=1)  AT K=   3, I=   2, J=  30
>>>>>>> Stashed changes


 TOTAL NUMBER OF POINT SOURCES/SINKS PRESENT IN THE FLOW MODEL =   240

 MAXIMUM STEPSIZE WHICH MEETS STABILITY CRITERION OF THE SINK & SOURCE TERM
 = 0.1000E+31(WHEN MIN. R.F.=1)  AT K=   0, I=   0, J=   0

 MAXIMUM STEPSIZE WHICH MEETS STABILITY CRITERION OF THE DISPERSION TERM
<<<<<<< Updated upstream
 = 0.4165E-01(WHEN MIN. R.F.=1)  AT K=   3, I=   2, J=  31
=======
 = 0.4520E-01(WHEN MIN. R.F.=1)  AT K=   3, I=   2, J=  30
>>>>>>> Stashed changes


     1 CALLS TO GCG PACKAGE FOR TRANSPORT TIME STEP   1 IN FLOW TIME STEP  81 STRESS PERIOD   1
     5 TOTAL ITERATIONS
  MAXIMUM CONCENTRATION CHANGES FOR EACH ITERATION:
  MAX. CHANGE LAYER,ROW,COL MAX. CHANGE LAYER,ROW,COL MAX. CHANGE LAYER,ROW,COL MAX. CHANGE LAYER,ROW,COL MAX. CHANGE LAYER,ROW,COL
 ------------------------------------------------------------------------------------------------------------------------------------
<<<<<<< Updated upstream
   0.2312E-02 (  2,  3, 56)  0.9647E-04 (  3,  2, 34)  0.4447E-05 (  4,  2, 33)  0.2755E-06 (  3,  2, 31)  0.1265E-07 (  4,  2, 31)
=======
   0.2597E-02 (  2,  1, 43)  0.1634E-03 (  3,  2, 37)  0.5688E-05 (  4,  2, 37)  0.3710E-06 (  3,  2, 37)  0.1556E-07 (  4,  2, 37)

 OUTPUT CONTROL FOR STRESS PERIOD    1   TIME STEP  81
    SAVE HEAD FOR ALL LAYERS
    SAVE BUDGET
 UBDSV2 SAVING "   CONSTANT HEAD" ON UNIT  53 AT TIME STEP 81, STRESS PERIOD   1
 UBDSV1 SAVING "FLOW RIGHT FACE " ON UNIT  53 AT TIME STEP 81, STRESS PERIOD   1
 UBDSV1 SAVING "FLOW FRONT FACE " ON UNIT  53 AT TIME STEP 81, STRESS PERIOD   1
 UBDSV1 SAVING "FLOW LOWER FACE " ON UNIT  53 AT TIME STEP 81, STRESS PERIOD   1
 UBDSV1 SAVING "            DCDT" ON UNIT  53 AT TIME STEP 81, STRESS PERIOD   1
>>>>>>> Stashed changes

 HEAD WILL BE SAVED ON UNIT   51 AT END OF TIME STEP  81, STRESS PERIOD    1


                                          ================================================
                                                         FROM TIME =  0.81000     TO   0.82000    

 
 SOLVING FOR HEAD 
 FLOW MODEL IS TRANSIENT
 FLOW MODEL CONTAINS CONSTANT-HEAD CELLS


 MAXIMUM STEPSIZE DURING WHICH ANY PARTICLE CANNOT MOVE MORE THAN ONE CELL
<<<<<<< Updated upstream
 =  1.104    (WHEN MIN. R.F.=1)  AT K=   3, I=   2, J=  29

 MAXIMUM STEPSIZE WHICH MEETS STABILITY CRITERION OF THE ADVECTION TERM
 (FOR PURE FINITE-DIFFERENCE OPTION, MIXELM=0) 
 = 0.7656    (WHEN MIN. R.F.=1)  AT K=   3, I=   2, J=  28
=======
 =  1.263    (WHEN MIN. R.F.=1)  AT K=   3, I=   2, J=  31

 MAXIMUM STEPSIZE WHICH MEETS STABILITY CRITERION OF THE ADVECTION TERM
 (FOR PURE FINITE-DIFFERENCE OPTION, MIXELM=0) 
 = 0.8435    (WHEN MIN. R.F.=1)  AT K=   3, I=   2, J=  30
>>>>>>> Stashed changes


 TOTAL NUMBER OF POINT SOURCES/SINKS PRESENT IN THE FLOW MODEL =   240

 MAXIMUM STEPSIZE WHICH MEETS STABILITY CRITERION OF THE SINK & SOURCE TERM
 = 0.1000E+31(WHEN MIN. R.F.=1)  AT K=   0, I=   0, J=   0

 MAXIMUM STEPSIZE WHICH MEETS STABILITY CRITERION OF THE DISPERSION TERM
<<<<<<< Updated upstream
 = 0.4167E-01(WHEN MIN. R.F.=1)  AT K=   3, I=   2, J=  31
=======
 = 0.4521E-01(WHEN MIN. R.F.=1)  AT K=   3, I=   2, J=  30
>>>>>>> Stashed changes


     1 CALLS TO GCG PACKAGE FOR TRANSPORT TIME STEP   1 IN FLOW TIME STEP  82 STRESS PERIOD   1
     5 TOTAL ITERATIONS
  MAXIMUM CONCENTRATION CHANGES FOR EACH ITERATION:
  MAX. CHANGE LAYER,ROW,COL MAX. CHANGE LAYER,ROW,COL MAX. CHANGE LAYER,ROW,COL MAX. CHANGE LAYER,ROW,COL MAX. CHANGE LAYER,ROW,COL
 ------------------------------------------------------------------------------------------------------------------------------------
<<<<<<< Updated upstream
   0.2295E-02 (  2,  3, 56)  0.9592E-04 (  3,  2, 34)  0.4421E-05 (  4,  2, 33)  0.2739E-06 (  3,  2, 31)  0.1257E-07 (  4,  2, 31)
=======
   0.2568E-02 (  2,  1, 43)  0.1623E-03 (  3,  2, 37)  0.5645E-05 (  4,  2, 37)  0.3686E-06 (  3,  2, 37)  0.1547E-07 (  4,  2, 37)
>>>>>>> Stashed changes

 OUTPUT CONTROL FOR STRESS PERIOD    1   TIME STEP  82
    SAVE HEAD FOR ALL LAYERS
    SAVE BUDGET
 UBDSV2 SAVING "   CONSTANT HEAD" ON UNIT  53 AT TIME STEP 82, STRESS PERIOD   1
 UBDSV1 SAVING "FLOW RIGHT FACE " ON UNIT  53 AT TIME STEP 82, STRESS PERIOD   1
 UBDSV1 SAVING "FLOW FRONT FACE " ON UNIT  53 AT TIME STEP 82, STRESS PERIOD   1
 UBDSV1 SAVING "FLOW LOWER FACE " ON UNIT  53 AT TIME STEP 82, STRESS PERIOD   1
 UBDSV1 SAVING "            DCDT" ON UNIT  53 AT TIME STEP 82, STRESS PERIOD   1

 HEAD WILL BE SAVED ON UNIT   51 AT END OF TIME STEP  82, STRESS PERIOD    1


                                          ================================================
                                                         FROM TIME =  0.82000     TO   0.83000    

 
 SOLVING FOR HEAD 
 FLOW MODEL IS TRANSIENT
 FLOW MODEL CONTAINS CONSTANT-HEAD CELLS


 MAXIMUM STEPSIZE DURING WHICH ANY PARTICLE CANNOT MOVE MORE THAN ONE CELL
<<<<<<< Updated upstream
 =  1.104    (WHEN MIN. R.F.=1)  AT K=   3, I=   2, J=  29

 MAXIMUM STEPSIZE WHICH MEETS STABILITY CRITERION OF THE ADVECTION TERM
 (FOR PURE FINITE-DIFFERENCE OPTION, MIXELM=0) 
 = 0.7658    (WHEN MIN. R.F.=1)  AT K=   3, I=   2, J=  28
=======
 =  1.263    (WHEN MIN. R.F.=1)  AT K=   3, I=   2, J=  31

 MAXIMUM STEPSIZE WHICH MEETS STABILITY CRITERION OF THE ADVECTION TERM
 (FOR PURE FINITE-DIFFERENCE OPTION, MIXELM=0) 
 = 0.8438    (WHEN MIN. R.F.=1)  AT K=   3, I=   2, J=  30
>>>>>>> Stashed changes


 TOTAL NUMBER OF POINT SOURCES/SINKS PRESENT IN THE FLOW MODEL =   240

 MAXIMUM STEPSIZE WHICH MEETS STABILITY CRITERION OF THE SINK & SOURCE TERM
 = 0.1000E+31(WHEN MIN. R.F.=1)  AT K=   0, I=   0, J=   0

 MAXIMUM STEPSIZE WHICH MEETS STABILITY CRITERION OF THE DISPERSION TERM
<<<<<<< Updated upstream
 = 0.4168E-01(WHEN MIN. R.F.=1)  AT K=   3, I=   2, J=  31
=======
 = 0.4523E-01(WHEN MIN. R.F.=1)  AT K=   3, I=   2, J=  30
>>>>>>> Stashed changes


     1 CALLS TO GCG PACKAGE FOR TRANSPORT TIME STEP   1 IN FLOW TIME STEP  83 STRESS PERIOD   1
     5 TOTAL ITERATIONS
  MAXIMUM CONCENTRATION CHANGES FOR EACH ITERATION:
  MAX. CHANGE LAYER,ROW,COL MAX. CHANGE LAYER,ROW,COL MAX. CHANGE LAYER,ROW,COL MAX. CHANGE LAYER,ROW,COL MAX. CHANGE LAYER,ROW,COL
 ------------------------------------------------------------------------------------------------------------------------------------
<<<<<<< Updated upstream
   0.2279E-02 (  2,  3, 56)  0.9538E-04 (  3,  2, 34)  0.4395E-05 (  4,  2, 33)  0.2723E-06 (  3,  2, 31)  0.1250E-07 (  4,  2, 31)
=======
   0.2539E-02 (  2,  1, 43)  0.1612E-03 (  3,  2, 37)  0.5603E-05 (  4,  2, 37)  0.3663E-06 (  3,  2, 37)  0.1538E-07 (  4,  2, 37)

 OUTPUT CONTROL FOR STRESS PERIOD    1   TIME STEP  83
    SAVE HEAD FOR ALL LAYERS
    SAVE BUDGET
 UBDSV2 SAVING "   CONSTANT HEAD" ON UNIT  53 AT TIME STEP 83, STRESS PERIOD   1
 UBDSV1 SAVING "FLOW RIGHT FACE " ON UNIT  53 AT TIME STEP 83, STRESS PERIOD   1
 UBDSV1 SAVING "FLOW FRONT FACE " ON UNIT  53 AT TIME STEP 83, STRESS PERIOD   1
 UBDSV1 SAVING "FLOW LOWER FACE " ON UNIT  53 AT TIME STEP 83, STRESS PERIOD   1
 UBDSV1 SAVING "            DCDT" ON UNIT  53 AT TIME STEP 83, STRESS PERIOD   1
>>>>>>> Stashed changes

 HEAD WILL BE SAVED ON UNIT   51 AT END OF TIME STEP  83, STRESS PERIOD    1


                                          ================================================
                                                         FROM TIME =  0.83000     TO   0.84000    

 
 SOLVING FOR HEAD 
 FLOW MODEL IS TRANSIENT
 FLOW MODEL CONTAINS CONSTANT-HEAD CELLS


 MAXIMUM STEPSIZE DURING WHICH ANY PARTICLE CANNOT MOVE MORE THAN ONE CELL
<<<<<<< Updated upstream
 =  1.104    (WHEN MIN. R.F.=1)  AT K=   3, I=   2, J=  29

 MAXIMUM STEPSIZE WHICH MEETS STABILITY CRITERION OF THE ADVECTION TERM
 (FOR PURE FINITE-DIFFERENCE OPTION, MIXELM=0) 
 = 0.7661    (WHEN MIN. R.F.=1)  AT K=   3, I=   2, J=  28
=======
 =  1.263    (WHEN MIN. R.F.=1)  AT K=   3, I=   2, J=  31

 MAXIMUM STEPSIZE WHICH MEETS STABILITY CRITERION OF THE ADVECTION TERM
 (FOR PURE FINITE-DIFFERENCE OPTION, MIXELM=0) 
 = 0.8441    (WHEN MIN. R.F.=1)  AT K=   3, I=   2, J=  30
>>>>>>> Stashed changes


 TOTAL NUMBER OF POINT SOURCES/SINKS PRESENT IN THE FLOW MODEL =   240

 MAXIMUM STEPSIZE WHICH MEETS STABILITY CRITERION OF THE SINK & SOURCE TERM
 = 0.1000E+31(WHEN MIN. R.F.=1)  AT K=   0, I=   0, J=   0

 MAXIMUM STEPSIZE WHICH MEETS STABILITY CRITERION OF THE DISPERSION TERM
<<<<<<< Updated upstream
 = 0.4170E-01(WHEN MIN. R.F.=1)  AT K=   3, I=   2, J=  31
=======
 = 0.4524E-01(WHEN MIN. R.F.=1)  AT K=   3, I=   2, J=  30
>>>>>>> Stashed changes


     1 CALLS TO GCG PACKAGE FOR TRANSPORT TIME STEP   1 IN FLOW TIME STEP  84 STRESS PERIOD   1
     5 TOTAL ITERATIONS
  MAXIMUM CONCENTRATION CHANGES FOR EACH ITERATION:
  MAX. CHANGE LAYER,ROW,COL MAX. CHANGE LAYER,ROW,COL MAX. CHANGE LAYER,ROW,COL MAX. CHANGE LAYER,ROW,COL MAX. CHANGE LAYER,ROW,COL
 ------------------------------------------------------------------------------------------------------------------------------------
<<<<<<< Updated upstream
   0.2263E-02 (  2,  3, 56)  0.9484E-04 (  3,  2, 34)  0.4370E-05 (  4,  2, 33)  0.2707E-06 (  3,  2, 31)  0.1243E-07 (  4,  2, 31)
=======
   0.2511E-02 (  2,  1, 43)  0.1601E-03 (  3,  2, 37)  0.5561E-05 (  4,  2, 37)  0.3640E-06 (  3,  2, 37)  0.1529E-07 (  4,  2, 37)

 OUTPUT CONTROL FOR STRESS PERIOD    1   TIME STEP  84
    SAVE HEAD FOR ALL LAYERS
    SAVE BUDGET
 UBDSV2 SAVING "   CONSTANT HEAD" ON UNIT  53 AT TIME STEP 84, STRESS PERIOD   1
 UBDSV1 SAVING "FLOW RIGHT FACE " ON UNIT  53 AT TIME STEP 84, STRESS PERIOD   1
 UBDSV1 SAVING "FLOW FRONT FACE " ON UNIT  53 AT TIME STEP 84, STRESS PERIOD   1
 UBDSV1 SAVING "FLOW LOWER FACE " ON UNIT  53 AT TIME STEP 84, STRESS PERIOD   1
 UBDSV1 SAVING "            DCDT" ON UNIT  53 AT TIME STEP 84, STRESS PERIOD   1
>>>>>>> Stashed changes

 HEAD WILL BE SAVED ON UNIT   51 AT END OF TIME STEP  84, STRESS PERIOD    1


                                          ================================================
                                                         FROM TIME =  0.84000     TO   0.85000    

 
 SOLVING FOR HEAD 
 FLOW MODEL IS TRANSIENT
 FLOW MODEL CONTAINS CONSTANT-HEAD CELLS


 MAXIMUM STEPSIZE DURING WHICH ANY PARTICLE CANNOT MOVE MORE THAN ONE CELL
<<<<<<< Updated upstream
 =  1.105    (WHEN MIN. R.F.=1)  AT K=   3, I=   2, J=  29

 MAXIMUM STEPSIZE WHICH MEETS STABILITY CRITERION OF THE ADVECTION TERM
 (FOR PURE FINITE-DIFFERENCE OPTION, MIXELM=0) 
 = 0.7663    (WHEN MIN. R.F.=1)  AT K=   3, I=   2, J=  28
=======
 =  1.264    (WHEN MIN. R.F.=1)  AT K=   3, I=   2, J=  31

 MAXIMUM STEPSIZE WHICH MEETS STABILITY CRITERION OF THE ADVECTION TERM
 (FOR PURE FINITE-DIFFERENCE OPTION, MIXELM=0) 
 = 0.8443    (WHEN MIN. R.F.=1)  AT K=   3, I=   2, J=  30
>>>>>>> Stashed changes


 TOTAL NUMBER OF POINT SOURCES/SINKS PRESENT IN THE FLOW MODEL =   240

 MAXIMUM STEPSIZE WHICH MEETS STABILITY CRITERION OF THE SINK & SOURCE TERM
 = 0.1000E+31(WHEN MIN. R.F.=1)  AT K=   0, I=   0, J=   0

 MAXIMUM STEPSIZE WHICH MEETS STABILITY CRITERION OF THE DISPERSION TERM
<<<<<<< Updated upstream
 = 0.4171E-01(WHEN MIN. R.F.=1)  AT K=   3, I=   2, J=  31
=======
 = 0.4525E-01(WHEN MIN. R.F.=1)  AT K=   3, I=   2, J=  30
>>>>>>> Stashed changes


     1 CALLS TO GCG PACKAGE FOR TRANSPORT TIME STEP   1 IN FLOW TIME STEP  85 STRESS PERIOD   1
     5 TOTAL ITERATIONS
  MAXIMUM CONCENTRATION CHANGES FOR EACH ITERATION:
  MAX. CHANGE LAYER,ROW,COL MAX. CHANGE LAYER,ROW,COL MAX. CHANGE LAYER,ROW,COL MAX. CHANGE LAYER,ROW,COL MAX. CHANGE LAYER,ROW,COL
 ------------------------------------------------------------------------------------------------------------------------------------
<<<<<<< Updated upstream
   0.2247E-02 (  2,  3, 56)  0.9432E-04 (  3,  2, 34)  0.4345E-05 (  4,  2, 33)  0.2691E-06 (  3,  2, 31)  0.1235E-07 (  4,  2, 31)
=======
   0.2484E-02 (  2,  1, 43)  0.1590E-03 (  3,  2, 37)  0.5520E-05 (  4,  2, 37)  0.3616E-06 (  3,  2, 37)  0.1520E-07 (  4,  2, 37)

 OUTPUT CONTROL FOR STRESS PERIOD    1   TIME STEP  85
    SAVE HEAD FOR ALL LAYERS
    SAVE BUDGET
 UBDSV2 SAVING "   CONSTANT HEAD" ON UNIT  53 AT TIME STEP 85, STRESS PERIOD   1
 UBDSV1 SAVING "FLOW RIGHT FACE " ON UNIT  53 AT TIME STEP 85, STRESS PERIOD   1
 UBDSV1 SAVING "FLOW FRONT FACE " ON UNIT  53 AT TIME STEP 85, STRESS PERIOD   1
 UBDSV1 SAVING "FLOW LOWER FACE " ON UNIT  53 AT TIME STEP 85, STRESS PERIOD   1
 UBDSV1 SAVING "            DCDT" ON UNIT  53 AT TIME STEP 85, STRESS PERIOD   1
>>>>>>> Stashed changes

 HEAD WILL BE SAVED ON UNIT   51 AT END OF TIME STEP  85, STRESS PERIOD    1


                                          ================================================
                                                         FROM TIME =  0.85000     TO   0.86000    

 
 SOLVING FOR HEAD 
 FLOW MODEL IS TRANSIENT
 FLOW MODEL CONTAINS CONSTANT-HEAD CELLS


 MAXIMUM STEPSIZE DURING WHICH ANY PARTICLE CANNOT MOVE MORE THAN ONE CELL
<<<<<<< Updated upstream
 =  1.105    (WHEN MIN. R.F.=1)  AT K=   3, I=   2, J=  29

 MAXIMUM STEPSIZE WHICH MEETS STABILITY CRITERION OF THE ADVECTION TERM
 (FOR PURE FINITE-DIFFERENCE OPTION, MIXELM=0) 
 = 0.7665    (WHEN MIN. R.F.=1)  AT K=   3, I=   2, J=  28
=======
 =  1.264    (WHEN MIN. R.F.=1)  AT K=   3, I=   2, J=  31

 MAXIMUM STEPSIZE WHICH MEETS STABILITY CRITERION OF THE ADVECTION TERM
 (FOR PURE FINITE-DIFFERENCE OPTION, MIXELM=0) 
 = 0.8446    (WHEN MIN. R.F.=1)  AT K=   3, I=   2, J=  30
>>>>>>> Stashed changes


 TOTAL NUMBER OF POINT SOURCES/SINKS PRESENT IN THE FLOW MODEL =   240

 MAXIMUM STEPSIZE WHICH MEETS STABILITY CRITERION OF THE SINK & SOURCE TERM
 = 0.1000E+31(WHEN MIN. R.F.=1)  AT K=   0, I=   0, J=   0

 MAXIMUM STEPSIZE WHICH MEETS STABILITY CRITERION OF THE DISPERSION TERM
<<<<<<< Updated upstream
 = 0.4172E-01(WHEN MIN. R.F.=1)  AT K=   3, I=   2, J=  31
=======
 = 0.4527E-01(WHEN MIN. R.F.=1)  AT K=   3, I=   2, J=  30
>>>>>>> Stashed changes


     1 CALLS TO GCG PACKAGE FOR TRANSPORT TIME STEP   1 IN FLOW TIME STEP  86 STRESS PERIOD   1
     5 TOTAL ITERATIONS
  MAXIMUM CONCENTRATION CHANGES FOR EACH ITERATION:
  MAX. CHANGE LAYER,ROW,COL MAX. CHANGE LAYER,ROW,COL MAX. CHANGE LAYER,ROW,COL MAX. CHANGE LAYER,ROW,COL MAX. CHANGE LAYER,ROW,COL
 ------------------------------------------------------------------------------------------------------------------------------------
<<<<<<< Updated upstream
   0.2231E-02 (  2,  3, 56)  0.9380E-04 (  3,  2, 34)  0.4320E-05 (  4,  2, 33)  0.2676E-06 (  3,  2, 31)  0.1228E-07 (  4,  2, 31)
=======
   0.2456E-02 (  2,  1, 43)  0.1580E-03 (  3,  2, 37)  0.5480E-05 (  4,  2, 37)  0.3593E-06 (  3,  2, 37)  0.1511E-07 (  4,  2, 37)
>>>>>>> Stashed changes

 OUTPUT CONTROL FOR STRESS PERIOD    1   TIME STEP  86
    SAVE HEAD FOR ALL LAYERS
    SAVE BUDGET
 UBDSV2 SAVING "   CONSTANT HEAD" ON UNIT  53 AT TIME STEP 86, STRESS PERIOD   1
 UBDSV1 SAVING "FLOW RIGHT FACE " ON UNIT  53 AT TIME STEP 86, STRESS PERIOD   1
 UBDSV1 SAVING "FLOW FRONT FACE " ON UNIT  53 AT TIME STEP 86, STRESS PERIOD   1
 UBDSV1 SAVING "FLOW LOWER FACE " ON UNIT  53 AT TIME STEP 86, STRESS PERIOD   1
 UBDSV1 SAVING "            DCDT" ON UNIT  53 AT TIME STEP 86, STRESS PERIOD   1

 HEAD WILL BE SAVED ON UNIT   51 AT END OF TIME STEP  86, STRESS PERIOD    1


                                          ================================================
                                                         FROM TIME =  0.86000     TO   0.87000    

 
 SOLVING FOR HEAD 
 FLOW MODEL IS TRANSIENT
 FLOW MODEL CONTAINS CONSTANT-HEAD CELLS


 MAXIMUM STEPSIZE DURING WHICH ANY PARTICLE CANNOT MOVE MORE THAN ONE CELL
<<<<<<< Updated upstream
 =  1.105    (WHEN MIN. R.F.=1)  AT K=   3, I=   2, J=  29

 MAXIMUM STEPSIZE WHICH MEETS STABILITY CRITERION OF THE ADVECTION TERM
 (FOR PURE FINITE-DIFFERENCE OPTION, MIXELM=0) 
 = 0.7668    (WHEN MIN. R.F.=1)  AT K=   3, I=   2, J=  28
=======
 =  1.265    (WHEN MIN. R.F.=1)  AT K=   3, I=   2, J=  31

 MAXIMUM STEPSIZE WHICH MEETS STABILITY CRITERION OF THE ADVECTION TERM
 (FOR PURE FINITE-DIFFERENCE OPTION, MIXELM=0) 
 = 0.8448    (WHEN MIN. R.F.=1)  AT K=   3, I=   2, J=  30
>>>>>>> Stashed changes


 TOTAL NUMBER OF POINT SOURCES/SINKS PRESENT IN THE FLOW MODEL =   240

 MAXIMUM STEPSIZE WHICH MEETS STABILITY CRITERION OF THE SINK & SOURCE TERM
 = 0.1000E+31(WHEN MIN. R.F.=1)  AT K=   0, I=   0, J=   0

 MAXIMUM STEPSIZE WHICH MEETS STABILITY CRITERION OF THE DISPERSION TERM
<<<<<<< Updated upstream
 = 0.4174E-01(WHEN MIN. R.F.=1)  AT K=   3, I=   2, J=  31
=======
 = 0.4528E-01(WHEN MIN. R.F.=1)  AT K=   3, I=   2, J=  30
>>>>>>> Stashed changes


     1 CALLS TO GCG PACKAGE FOR TRANSPORT TIME STEP   1 IN FLOW TIME STEP  87 STRESS PERIOD   1
     5 TOTAL ITERATIONS
  MAXIMUM CONCENTRATION CHANGES FOR EACH ITERATION:
  MAX. CHANGE LAYER,ROW,COL MAX. CHANGE LAYER,ROW,COL MAX. CHANGE LAYER,ROW,COL MAX. CHANGE LAYER,ROW,COL MAX. CHANGE LAYER,ROW,COL
 ------------------------------------------------------------------------------------------------------------------------------------
<<<<<<< Updated upstream
   0.2216E-02 (  2,  3, 56)  0.9328E-04 (  3,  2, 34)  0.4296E-05 (  4,  2, 33)  0.2661E-06 (  3,  2, 31)  0.1221E-07 (  4,  2, 31)

 NO OUTPUT CONTROL FOR STRESS PERIOD    1   TIME STEP  87
=======
   0.2430E-02 (  2,  1, 43)  0.1569E-03 (  3,  2, 37)  0.5441E-05 (  4,  2, 37)  0.3571E-06 (  3,  2, 37)  0.1503E-07 (  4,  2, 37)

 OUTPUT CONTROL FOR STRESS PERIOD    1   TIME STEP  87
    SAVE HEAD FOR ALL LAYERS
    SAVE BUDGET
 UBDSV2 SAVING "   CONSTANT HEAD" ON UNIT  53 AT TIME STEP 87, STRESS PERIOD   1
 UBDSV1 SAVING "FLOW RIGHT FACE " ON UNIT  53 AT TIME STEP 87, STRESS PERIOD   1
 UBDSV1 SAVING "FLOW FRONT FACE " ON UNIT  53 AT TIME STEP 87, STRESS PERIOD   1
 UBDSV1 SAVING "FLOW LOWER FACE " ON UNIT  53 AT TIME STEP 87, STRESS PERIOD   1
 UBDSV1 SAVING "            DCDT" ON UNIT  53 AT TIME STEP 87, STRESS PERIOD   1

 HEAD WILL BE SAVED ON UNIT   51 AT END OF TIME STEP  87, STRESS PERIOD    1
>>>>>>> Stashed changes


                                          ================================================
                                                         FROM TIME =  0.87000     TO   0.88000    

 
 SOLVING FOR HEAD 
 FLOW MODEL IS TRANSIENT
 FLOW MODEL CONTAINS CONSTANT-HEAD CELLS


 MAXIMUM STEPSIZE DURING WHICH ANY PARTICLE CANNOT MOVE MORE THAN ONE CELL
<<<<<<< Updated upstream
 =  1.106    (WHEN MIN. R.F.=1)  AT K=   3, I=   2, J=  29

 MAXIMUM STEPSIZE WHICH MEETS STABILITY CRITERION OF THE ADVECTION TERM
 (FOR PURE FINITE-DIFFERENCE OPTION, MIXELM=0) 
 = 0.7670    (WHEN MIN. R.F.=1)  AT K=   3, I=   2, J=  28
=======
 =  1.265    (WHEN MIN. R.F.=1)  AT K=   3, I=   2, J=  31

 MAXIMUM STEPSIZE WHICH MEETS STABILITY CRITERION OF THE ADVECTION TERM
 (FOR PURE FINITE-DIFFERENCE OPTION, MIXELM=0) 
 = 0.8451    (WHEN MIN. R.F.=1)  AT K=   3, I=   2, J=  30
>>>>>>> Stashed changes


 TOTAL NUMBER OF POINT SOURCES/SINKS PRESENT IN THE FLOW MODEL =   240

 MAXIMUM STEPSIZE WHICH MEETS STABILITY CRITERION OF THE SINK & SOURCE TERM
 = 0.1000E+31(WHEN MIN. R.F.=1)  AT K=   0, I=   0, J=   0

 MAXIMUM STEPSIZE WHICH MEETS STABILITY CRITERION OF THE DISPERSION TERM
<<<<<<< Updated upstream
 = 0.4175E-01(WHEN MIN. R.F.=1)  AT K=   3, I=   2, J=  31
=======
 = 0.4530E-01(WHEN MIN. R.F.=1)  AT K=   3, I=   2, J=  30
>>>>>>> Stashed changes


     1 CALLS TO GCG PACKAGE FOR TRANSPORT TIME STEP   1 IN FLOW TIME STEP  88 STRESS PERIOD   1
     5 TOTAL ITERATIONS
  MAXIMUM CONCENTRATION CHANGES FOR EACH ITERATION:
  MAX. CHANGE LAYER,ROW,COL MAX. CHANGE LAYER,ROW,COL MAX. CHANGE LAYER,ROW,COL MAX. CHANGE LAYER,ROW,COL MAX. CHANGE LAYER,ROW,COL
 ------------------------------------------------------------------------------------------------------------------------------------
<<<<<<< Updated upstream
   0.2200E-02 (  2,  3, 56)  0.9278E-04 (  3,  2, 34)  0.4272E-05 (  4,  2, 33)  0.2646E-06 (  3,  2, 31)  0.1214E-07 (  4,  2, 31)
=======
   0.2403E-02 (  2,  1, 43)  0.1559E-03 (  3,  2, 37)  0.5402E-05 (  4,  2, 37)  0.3548E-06 (  3,  2, 37)  0.1494E-07 (  4,  2, 37)
>>>>>>> Stashed changes

 OUTPUT CONTROL FOR STRESS PERIOD    1   TIME STEP  88
    SAVE HEAD FOR ALL LAYERS
    SAVE BUDGET
 UBDSV2 SAVING "   CONSTANT HEAD" ON UNIT  53 AT TIME STEP 88, STRESS PERIOD   1
 UBDSV1 SAVING "FLOW RIGHT FACE " ON UNIT  53 AT TIME STEP 88, STRESS PERIOD   1
 UBDSV1 SAVING "FLOW FRONT FACE " ON UNIT  53 AT TIME STEP 88, STRESS PERIOD   1
 UBDSV1 SAVING "FLOW LOWER FACE " ON UNIT  53 AT TIME STEP 88, STRESS PERIOD   1
 UBDSV1 SAVING "            DCDT" ON UNIT  53 AT TIME STEP 88, STRESS PERIOD   1

 HEAD WILL BE SAVED ON UNIT   51 AT END OF TIME STEP  88, STRESS PERIOD    1


                                          ================================================
                                                         FROM TIME =  0.88000     TO   0.89000    

 
 SOLVING FOR HEAD 
 FLOW MODEL IS TRANSIENT
 FLOW MODEL CONTAINS CONSTANT-HEAD CELLS


 MAXIMUM STEPSIZE DURING WHICH ANY PARTICLE CANNOT MOVE MORE THAN ONE CELL
<<<<<<< Updated upstream
 =  1.106    (WHEN MIN. R.F.=1)  AT K=   3, I=   2, J=  29

 MAXIMUM STEPSIZE WHICH MEETS STABILITY CRITERION OF THE ADVECTION TERM
 (FOR PURE FINITE-DIFFERENCE OPTION, MIXELM=0) 
 = 0.7672    (WHEN MIN. R.F.=1)  AT K=   3, I=   2, J=  28
=======
 =  1.265    (WHEN MIN. R.F.=1)  AT K=   3, I=   2, J=  31

 MAXIMUM STEPSIZE WHICH MEETS STABILITY CRITERION OF THE ADVECTION TERM
 (FOR PURE FINITE-DIFFERENCE OPTION, MIXELM=0) 
 = 0.8453    (WHEN MIN. R.F.=1)  AT K=   3, I=   2, J=  30
>>>>>>> Stashed changes


 TOTAL NUMBER OF POINT SOURCES/SINKS PRESENT IN THE FLOW MODEL =   240

 MAXIMUM STEPSIZE WHICH MEETS STABILITY CRITERION OF THE SINK & SOURCE TERM
 = 0.1000E+31(WHEN MIN. R.F.=1)  AT K=   0, I=   0, J=   0

 MAXIMUM STEPSIZE WHICH MEETS STABILITY CRITERION OF THE DISPERSION TERM
<<<<<<< Updated upstream
 = 0.4177E-01(WHEN MIN. R.F.=1)  AT K=   3, I=   2, J=  31
=======
 = 0.4531E-01(WHEN MIN. R.F.=1)  AT K=   3, I=   2, J=  30
>>>>>>> Stashed changes


     1 CALLS TO GCG PACKAGE FOR TRANSPORT TIME STEP   1 IN FLOW TIME STEP  89 STRESS PERIOD   1
     5 TOTAL ITERATIONS
  MAXIMUM CONCENTRATION CHANGES FOR EACH ITERATION:
  MAX. CHANGE LAYER,ROW,COL MAX. CHANGE LAYER,ROW,COL MAX. CHANGE LAYER,ROW,COL MAX. CHANGE LAYER,ROW,COL MAX. CHANGE LAYER,ROW,COL
 ------------------------------------------------------------------------------------------------------------------------------------
<<<<<<< Updated upstream
   0.2184E-02 (  2,  3, 56)  0.9228E-04 (  3,  2, 34)  0.4248E-05 (  4,  2, 33)  0.2631E-06 (  3,  2, 31)  0.1207E-07 (  4,  2, 31)
=======
   0.2377E-02 (  2,  1, 43)  0.1549E-03 (  3,  2, 37)  0.5364E-05 (  4,  2, 37)  0.3525E-06 (  3,  2, 37)  0.1485E-07 (  4,  2, 37)

 OUTPUT CONTROL FOR STRESS PERIOD    1   TIME STEP  89
    SAVE HEAD FOR ALL LAYERS
    SAVE BUDGET
 UBDSV2 SAVING "   CONSTANT HEAD" ON UNIT  53 AT TIME STEP 89, STRESS PERIOD   1
 UBDSV1 SAVING "FLOW RIGHT FACE " ON UNIT  53 AT TIME STEP 89, STRESS PERIOD   1
 UBDSV1 SAVING "FLOW FRONT FACE " ON UNIT  53 AT TIME STEP 89, STRESS PERIOD   1
 UBDSV1 SAVING "FLOW LOWER FACE " ON UNIT  53 AT TIME STEP 89, STRESS PERIOD   1
 UBDSV1 SAVING "            DCDT" ON UNIT  53 AT TIME STEP 89, STRESS PERIOD   1
>>>>>>> Stashed changes

 HEAD WILL BE SAVED ON UNIT   51 AT END OF TIME STEP  89, STRESS PERIOD    1


                                          ================================================
                                                         FROM TIME =  0.89000     TO   0.90000    

 
 SOLVING FOR HEAD 
 FLOW MODEL IS TRANSIENT
 FLOW MODEL CONTAINS CONSTANT-HEAD CELLS


 MAXIMUM STEPSIZE DURING WHICH ANY PARTICLE CANNOT MOVE MORE THAN ONE CELL
<<<<<<< Updated upstream
 =  1.106    (WHEN MIN. R.F.=1)  AT K=   3, I=   2, J=  29

 MAXIMUM STEPSIZE WHICH MEETS STABILITY CRITERION OF THE ADVECTION TERM
 (FOR PURE FINITE-DIFFERENCE OPTION, MIXELM=0) 
 = 0.7674    (WHEN MIN. R.F.=1)  AT K=   3, I=   2, J=  28
=======
 =  1.266    (WHEN MIN. R.F.=1)  AT K=   3, I=   2, J=  31

 MAXIMUM STEPSIZE WHICH MEETS STABILITY CRITERION OF THE ADVECTION TERM
 (FOR PURE FINITE-DIFFERENCE OPTION, MIXELM=0) 
 = 0.8455    (WHEN MIN. R.F.=1)  AT K=   3, I=   2, J=  30
>>>>>>> Stashed changes


 TOTAL NUMBER OF POINT SOURCES/SINKS PRESENT IN THE FLOW MODEL =   240

 MAXIMUM STEPSIZE WHICH MEETS STABILITY CRITERION OF THE SINK & SOURCE TERM
 = 0.1000E+31(WHEN MIN. R.F.=1)  AT K=   0, I=   0, J=   0

 MAXIMUM STEPSIZE WHICH MEETS STABILITY CRITERION OF THE DISPERSION TERM
<<<<<<< Updated upstream
 = 0.4178E-01(WHEN MIN. R.F.=1)  AT K=   3, I=   2, J=  31
=======
 = 0.4532E-01(WHEN MIN. R.F.=1)  AT K=   3, I=   2, J=  30
>>>>>>> Stashed changes


     1 CALLS TO GCG PACKAGE FOR TRANSPORT TIME STEP   1 IN FLOW TIME STEP  90 STRESS PERIOD   1
     5 TOTAL ITERATIONS
  MAXIMUM CONCENTRATION CHANGES FOR EACH ITERATION:
  MAX. CHANGE LAYER,ROW,COL MAX. CHANGE LAYER,ROW,COL MAX. CHANGE LAYER,ROW,COL MAX. CHANGE LAYER,ROW,COL MAX. CHANGE LAYER,ROW,COL
 ------------------------------------------------------------------------------------------------------------------------------------
<<<<<<< Updated upstream
   0.2169E-02 (  2,  3, 57)  0.9178E-04 (  3,  2, 34)  0.4225E-05 (  4,  2, 33)  0.2617E-06 (  3,  2, 31)  0.1201E-07 (  4,  2, 31)
=======
   0.2352E-02 (  2,  1, 43)  0.1539E-03 (  3,  2, 37)  0.5327E-05 (  4,  2, 37)  0.3503E-06 (  3,  2, 37)  0.1476E-07 (  4,  2, 37)

 OUTPUT CONTROL FOR STRESS PERIOD    1   TIME STEP  90
    SAVE HEAD FOR ALL LAYERS
    SAVE BUDGET
 UBDSV2 SAVING "   CONSTANT HEAD" ON UNIT  53 AT TIME STEP 90, STRESS PERIOD   1
 UBDSV1 SAVING "FLOW RIGHT FACE " ON UNIT  53 AT TIME STEP 90, STRESS PERIOD   1
 UBDSV1 SAVING "FLOW FRONT FACE " ON UNIT  53 AT TIME STEP 90, STRESS PERIOD   1
 UBDSV1 SAVING "FLOW LOWER FACE " ON UNIT  53 AT TIME STEP 90, STRESS PERIOD   1
 UBDSV1 SAVING "            DCDT" ON UNIT  53 AT TIME STEP 90, STRESS PERIOD   1
>>>>>>> Stashed changes

 HEAD WILL BE SAVED ON UNIT   51 AT END OF TIME STEP  90, STRESS PERIOD    1


                                          ================================================
                                                         FROM TIME =  0.90000     TO   0.91000    

 
 SOLVING FOR HEAD 
 FLOW MODEL IS TRANSIENT
 FLOW MODEL CONTAINS CONSTANT-HEAD CELLS


 MAXIMUM STEPSIZE DURING WHICH ANY PARTICLE CANNOT MOVE MORE THAN ONE CELL
<<<<<<< Updated upstream
 =  1.107    (WHEN MIN. R.F.=1)  AT K=   3, I=   2, J=  29

 MAXIMUM STEPSIZE WHICH MEETS STABILITY CRITERION OF THE ADVECTION TERM
 (FOR PURE FINITE-DIFFERENCE OPTION, MIXELM=0) 
 = 0.7677    (WHEN MIN. R.F.=1)  AT K=   3, I=   2, J=  28
=======
 =  1.266    (WHEN MIN. R.F.=1)  AT K=   3, I=   2, J=  31

 MAXIMUM STEPSIZE WHICH MEETS STABILITY CRITERION OF THE ADVECTION TERM
 (FOR PURE FINITE-DIFFERENCE OPTION, MIXELM=0) 
 = 0.8458    (WHEN MIN. R.F.=1)  AT K=   3, I=   2, J=  30
>>>>>>> Stashed changes


 TOTAL NUMBER OF POINT SOURCES/SINKS PRESENT IN THE FLOW MODEL =   240

 MAXIMUM STEPSIZE WHICH MEETS STABILITY CRITERION OF THE SINK & SOURCE TERM
 = 0.1000E+31(WHEN MIN. R.F.=1)  AT K=   0, I=   0, J=   0

 MAXIMUM STEPSIZE WHICH MEETS STABILITY CRITERION OF THE DISPERSION TERM
<<<<<<< Updated upstream
 = 0.4179E-01(WHEN MIN. R.F.=1)  AT K=   3, I=   2, J=  31
=======
 = 0.4534E-01(WHEN MIN. R.F.=1)  AT K=   3, I=   2, J=  30
>>>>>>> Stashed changes


     1 CALLS TO GCG PACKAGE FOR TRANSPORT TIME STEP   1 IN FLOW TIME STEP  91 STRESS PERIOD   1
     5 TOTAL ITERATIONS
  MAXIMUM CONCENTRATION CHANGES FOR EACH ITERATION:
  MAX. CHANGE LAYER,ROW,COL MAX. CHANGE LAYER,ROW,COL MAX. CHANGE LAYER,ROW,COL MAX. CHANGE LAYER,ROW,COL MAX. CHANGE LAYER,ROW,COL
 ------------------------------------------------------------------------------------------------------------------------------------
<<<<<<< Updated upstream
   0.2154E-02 (  2,  3, 57)  0.9129E-04 (  3,  2, 34)  0.4202E-05 (  4,  2, 33)  0.2602E-06 (  3,  2, 31)  0.1194E-07 (  4,  2, 31)
=======
   0.2326E-02 (  2,  1, 43)  0.1529E-03 (  3,  2, 37)  0.5290E-05 (  4,  2, 37)  0.3481E-06 (  3,  2, 37)  0.1468E-07 (  4,  2, 37)

 OUTPUT CONTROL FOR STRESS PERIOD    1   TIME STEP  91
    SAVE HEAD FOR ALL LAYERS
    SAVE BUDGET
 UBDSV2 SAVING "   CONSTANT HEAD" ON UNIT  53 AT TIME STEP 91, STRESS PERIOD   1
 UBDSV1 SAVING "FLOW RIGHT FACE " ON UNIT  53 AT TIME STEP 91, STRESS PERIOD   1
 UBDSV1 SAVING "FLOW FRONT FACE " ON UNIT  53 AT TIME STEP 91, STRESS PERIOD   1
 UBDSV1 SAVING "FLOW LOWER FACE " ON UNIT  53 AT TIME STEP 91, STRESS PERIOD   1
 UBDSV1 SAVING "            DCDT" ON UNIT  53 AT TIME STEP 91, STRESS PERIOD   1
>>>>>>> Stashed changes

 HEAD WILL BE SAVED ON UNIT   51 AT END OF TIME STEP  91, STRESS PERIOD    1


                                          ================================================
                                                         FROM TIME =  0.91000     TO   0.92000    

 
 SOLVING FOR HEAD 
 FLOW MODEL IS TRANSIENT
 FLOW MODEL CONTAINS CONSTANT-HEAD CELLS


 MAXIMUM STEPSIZE DURING WHICH ANY PARTICLE CANNOT MOVE MORE THAN ONE CELL
<<<<<<< Updated upstream
 =  1.107    (WHEN MIN. R.F.=1)  AT K=   3, I=   2, J=  29

 MAXIMUM STEPSIZE WHICH MEETS STABILITY CRITERION OF THE ADVECTION TERM
 (FOR PURE FINITE-DIFFERENCE OPTION, MIXELM=0) 
 = 0.7679    (WHEN MIN. R.F.=1)  AT K=   3, I=   2, J=  28
=======
 =  1.266    (WHEN MIN. R.F.=1)  AT K=   3, I=   2, J=  31

 MAXIMUM STEPSIZE WHICH MEETS STABILITY CRITERION OF THE ADVECTION TERM
 (FOR PURE FINITE-DIFFERENCE OPTION, MIXELM=0) 
 = 0.8460    (WHEN MIN. R.F.=1)  AT K=   3, I=   2, J=  30
>>>>>>> Stashed changes


 TOTAL NUMBER OF POINT SOURCES/SINKS PRESENT IN THE FLOW MODEL =   240

 MAXIMUM STEPSIZE WHICH MEETS STABILITY CRITERION OF THE SINK & SOURCE TERM
 = 0.1000E+31(WHEN MIN. R.F.=1)  AT K=   0, I=   0, J=   0

 MAXIMUM STEPSIZE WHICH MEETS STABILITY CRITERION OF THE DISPERSION TERM
<<<<<<< Updated upstream
 = 0.4181E-01(WHEN MIN. R.F.=1)  AT K=   3, I=   2, J=  31
=======
 = 0.4535E-01(WHEN MIN. R.F.=1)  AT K=   3, I=   2, J=  30
>>>>>>> Stashed changes


     1 CALLS TO GCG PACKAGE FOR TRANSPORT TIME STEP   1 IN FLOW TIME STEP  92 STRESS PERIOD   1
     5 TOTAL ITERATIONS
  MAXIMUM CONCENTRATION CHANGES FOR EACH ITERATION:
  MAX. CHANGE LAYER,ROW,COL MAX. CHANGE LAYER,ROW,COL MAX. CHANGE LAYER,ROW,COL MAX. CHANGE LAYER,ROW,COL MAX. CHANGE LAYER,ROW,COL
 ------------------------------------------------------------------------------------------------------------------------------------
<<<<<<< Updated upstream
   0.2139E-02 (  2,  3, 57)  0.9081E-04 (  3,  2, 34)  0.4179E-05 (  4,  2, 33)  0.2588E-06 (  3,  2, 31)  0.1187E-07 (  4,  2, 31)
=======
   0.2302E-02 (  2,  1, 43)  0.1519E-03 (  3,  2, 37)  0.5254E-05 (  4,  2, 37)  0.3459E-06 (  3,  2, 37)  0.1459E-07 (  4,  2, 37)
>>>>>>> Stashed changes

 OUTPUT CONTROL FOR STRESS PERIOD    1   TIME STEP  92
    SAVE HEAD FOR ALL LAYERS
    SAVE BUDGET
 UBDSV2 SAVING "   CONSTANT HEAD" ON UNIT  53 AT TIME STEP 92, STRESS PERIOD   1
 UBDSV1 SAVING "FLOW RIGHT FACE " ON UNIT  53 AT TIME STEP 92, STRESS PERIOD   1
 UBDSV1 SAVING "FLOW FRONT FACE " ON UNIT  53 AT TIME STEP 92, STRESS PERIOD   1
 UBDSV1 SAVING "FLOW LOWER FACE " ON UNIT  53 AT TIME STEP 92, STRESS PERIOD   1
 UBDSV1 SAVING "            DCDT" ON UNIT  53 AT TIME STEP 92, STRESS PERIOD   1

 HEAD WILL BE SAVED ON UNIT   51 AT END OF TIME STEP  92, STRESS PERIOD    1


                                          ================================================
                                                         FROM TIME =  0.92000     TO   0.93000    

 
 SOLVING FOR HEAD 
 FLOW MODEL IS TRANSIENT
 FLOW MODEL CONTAINS CONSTANT-HEAD CELLS


 MAXIMUM STEPSIZE DURING WHICH ANY PARTICLE CANNOT MOVE MORE THAN ONE CELL
<<<<<<< Updated upstream
 =  1.107    (WHEN MIN. R.F.=1)  AT K=   3, I=   2, J=  29

 MAXIMUM STEPSIZE WHICH MEETS STABILITY CRITERION OF THE ADVECTION TERM
 (FOR PURE FINITE-DIFFERENCE OPTION, MIXELM=0) 
 = 0.7681    (WHEN MIN. R.F.=1)  AT K=   3, I=   2, J=  28
=======
 =  1.267    (WHEN MIN. R.F.=1)  AT K=   3, I=   2, J=  31

 MAXIMUM STEPSIZE WHICH MEETS STABILITY CRITERION OF THE ADVECTION TERM
 (FOR PURE FINITE-DIFFERENCE OPTION, MIXELM=0) 
 = 0.8463    (WHEN MIN. R.F.=1)  AT K=   3, I=   2, J=  30
>>>>>>> Stashed changes


 TOTAL NUMBER OF POINT SOURCES/SINKS PRESENT IN THE FLOW MODEL =   240

 MAXIMUM STEPSIZE WHICH MEETS STABILITY CRITERION OF THE SINK & SOURCE TERM
 = 0.1000E+31(WHEN MIN. R.F.=1)  AT K=   0, I=   0, J=   0

 MAXIMUM STEPSIZE WHICH MEETS STABILITY CRITERION OF THE DISPERSION TERM
<<<<<<< Updated upstream
 = 0.4182E-01(WHEN MIN. R.F.=1)  AT K=   3, I=   2, J=  31
=======
 = 0.4537E-01(WHEN MIN. R.F.=1)  AT K=   3, I=   2, J=  30
>>>>>>> Stashed changes


     1 CALLS TO GCG PACKAGE FOR TRANSPORT TIME STEP   1 IN FLOW TIME STEP  93 STRESS PERIOD   1
     5 TOTAL ITERATIONS
  MAXIMUM CONCENTRATION CHANGES FOR EACH ITERATION:
  MAX. CHANGE LAYER,ROW,COL MAX. CHANGE LAYER,ROW,COL MAX. CHANGE LAYER,ROW,COL MAX. CHANGE LAYER,ROW,COL MAX. CHANGE LAYER,ROW,COL
 ------------------------------------------------------------------------------------------------------------------------------------
<<<<<<< Updated upstream
   0.2125E-02 (  2,  3, 57)  0.9034E-04 (  3,  2, 34)  0.4157E-05 (  4,  2, 33)  0.2574E-06 (  3,  2, 31)  0.1181E-07 (  4,  2, 31)
=======
   0.2277E-02 (  2,  1, 43)  0.1509E-03 (  3,  2, 37)  0.5218E-05 (  4,  2, 37)  0.3438E-06 (  3,  2, 37)  0.1450E-07 (  4,  2, 37)

 OUTPUT CONTROL FOR STRESS PERIOD    1   TIME STEP  93
    SAVE HEAD FOR ALL LAYERS
    SAVE BUDGET
 UBDSV2 SAVING "   CONSTANT HEAD" ON UNIT  53 AT TIME STEP 93, STRESS PERIOD   1
 UBDSV1 SAVING "FLOW RIGHT FACE " ON UNIT  53 AT TIME STEP 93, STRESS PERIOD   1
 UBDSV1 SAVING "FLOW FRONT FACE " ON UNIT  53 AT TIME STEP 93, STRESS PERIOD   1
 UBDSV1 SAVING "FLOW LOWER FACE " ON UNIT  53 AT TIME STEP 93, STRESS PERIOD   1
 UBDSV1 SAVING "            DCDT" ON UNIT  53 AT TIME STEP 93, STRESS PERIOD   1
>>>>>>> Stashed changes

 HEAD WILL BE SAVED ON UNIT   51 AT END OF TIME STEP  93, STRESS PERIOD    1


                                          ================================================
                                                         FROM TIME =  0.93000     TO   0.94000    

 
 SOLVING FOR HEAD 
 FLOW MODEL IS TRANSIENT
 FLOW MODEL CONTAINS CONSTANT-HEAD CELLS


 MAXIMUM STEPSIZE DURING WHICH ANY PARTICLE CANNOT MOVE MORE THAN ONE CELL
<<<<<<< Updated upstream
 =  1.107    (WHEN MIN. R.F.=1)  AT K=   3, I=   2, J=  29

 MAXIMUM STEPSIZE WHICH MEETS STABILITY CRITERION OF THE ADVECTION TERM
 (FOR PURE FINITE-DIFFERENCE OPTION, MIXELM=0) 
 = 0.7683    (WHEN MIN. R.F.=1)  AT K=   3, I=   2, J=  28
=======
 =  1.267    (WHEN MIN. R.F.=1)  AT K=   3, I=   2, J=  31

 MAXIMUM STEPSIZE WHICH MEETS STABILITY CRITERION OF THE ADVECTION TERM
 (FOR PURE FINITE-DIFFERENCE OPTION, MIXELM=0) 
 = 0.8465    (WHEN MIN. R.F.=1)  AT K=   3, I=   2, J=  30
>>>>>>> Stashed changes


 TOTAL NUMBER OF POINT SOURCES/SINKS PRESENT IN THE FLOW MODEL =   240

 MAXIMUM STEPSIZE WHICH MEETS STABILITY CRITERION OF THE SINK & SOURCE TERM
 = 0.1000E+31(WHEN MIN. R.F.=1)  AT K=   0, I=   0, J=   0

 MAXIMUM STEPSIZE WHICH MEETS STABILITY CRITERION OF THE DISPERSION TERM
<<<<<<< Updated upstream
 = 0.4183E-01(WHEN MIN. R.F.=1)  AT K=   3, I=   2, J=  31
=======
 = 0.4538E-01(WHEN MIN. R.F.=1)  AT K=   3, I=   2, J=  30
>>>>>>> Stashed changes


     1 CALLS TO GCG PACKAGE FOR TRANSPORT TIME STEP   1 IN FLOW TIME STEP  94 STRESS PERIOD   1
     5 TOTAL ITERATIONS
  MAXIMUM CONCENTRATION CHANGES FOR EACH ITERATION:
  MAX. CHANGE LAYER,ROW,COL MAX. CHANGE LAYER,ROW,COL MAX. CHANGE LAYER,ROW,COL MAX. CHANGE LAYER,ROW,COL MAX. CHANGE LAYER,ROW,COL
 ------------------------------------------------------------------------------------------------------------------------------------
<<<<<<< Updated upstream
   0.2110E-02 (  2,  3, 57)  0.8987E-04 (  3,  2, 34)  0.4135E-05 (  4,  2, 33)  0.2560E-06 (  3,  2, 31)  0.1174E-07 (  4,  2, 31)
=======
   0.2253E-02 (  2,  1, 43)  0.1500E-03 (  3,  2, 37)  0.5183E-05 (  4,  2, 37)  0.3416E-06 (  3,  2, 37)  0.1442E-07 (  4,  2, 37)

 OUTPUT CONTROL FOR STRESS PERIOD    1   TIME STEP  94
    SAVE HEAD FOR ALL LAYERS
    SAVE BUDGET
 UBDSV2 SAVING "   CONSTANT HEAD" ON UNIT  53 AT TIME STEP 94, STRESS PERIOD   1
 UBDSV1 SAVING "FLOW RIGHT FACE " ON UNIT  53 AT TIME STEP 94, STRESS PERIOD   1
 UBDSV1 SAVING "FLOW FRONT FACE " ON UNIT  53 AT TIME STEP 94, STRESS PERIOD   1
 UBDSV1 SAVING "FLOW LOWER FACE " ON UNIT  53 AT TIME STEP 94, STRESS PERIOD   1
 UBDSV1 SAVING "            DCDT" ON UNIT  53 AT TIME STEP 94, STRESS PERIOD   1
>>>>>>> Stashed changes

 HEAD WILL BE SAVED ON UNIT   51 AT END OF TIME STEP  94, STRESS PERIOD    1


                                          ================================================
                                                         FROM TIME =  0.94000     TO   0.95000    

 
 SOLVING FOR HEAD 
 FLOW MODEL IS TRANSIENT
 FLOW MODEL CONTAINS CONSTANT-HEAD CELLS


 MAXIMUM STEPSIZE DURING WHICH ANY PARTICLE CANNOT MOVE MORE THAN ONE CELL
<<<<<<< Updated upstream
 =  1.108    (WHEN MIN. R.F.=1)  AT K=   3, I=   2, J=  29

 MAXIMUM STEPSIZE WHICH MEETS STABILITY CRITERION OF THE ADVECTION TERM
 (FOR PURE FINITE-DIFFERENCE OPTION, MIXELM=0) 
 = 0.7685    (WHEN MIN. R.F.=1)  AT K=   3, I=   2, J=  28
=======
 =  1.268    (WHEN MIN. R.F.=1)  AT K=   3, I=   2, J=  31

 MAXIMUM STEPSIZE WHICH MEETS STABILITY CRITERION OF THE ADVECTION TERM
 (FOR PURE FINITE-DIFFERENCE OPTION, MIXELM=0) 
 = 0.8467    (WHEN MIN. R.F.=1)  AT K=   3, I=   2, J=  30
>>>>>>> Stashed changes


 TOTAL NUMBER OF POINT SOURCES/SINKS PRESENT IN THE FLOW MODEL =   240

 MAXIMUM STEPSIZE WHICH MEETS STABILITY CRITERION OF THE SINK & SOURCE TERM
 = 0.1000E+31(WHEN MIN. R.F.=1)  AT K=   0, I=   0, J=   0

 MAXIMUM STEPSIZE WHICH MEETS STABILITY CRITERION OF THE DISPERSION TERM
<<<<<<< Updated upstream
 = 0.4185E-01(WHEN MIN. R.F.=1)  AT K=   3, I=   2, J=  31
=======
 = 0.4539E-01(WHEN MIN. R.F.=1)  AT K=   3, I=   2, J=  30
>>>>>>> Stashed changes


     1 CALLS TO GCG PACKAGE FOR TRANSPORT TIME STEP   1 IN FLOW TIME STEP  95 STRESS PERIOD   1
     5 TOTAL ITERATIONS
  MAXIMUM CONCENTRATION CHANGES FOR EACH ITERATION:
  MAX. CHANGE LAYER,ROW,COL MAX. CHANGE LAYER,ROW,COL MAX. CHANGE LAYER,ROW,COL MAX. CHANGE LAYER,ROW,COL MAX. CHANGE LAYER,ROW,COL
 ------------------------------------------------------------------------------------------------------------------------------------
<<<<<<< Updated upstream
   0.2096E-02 (  2,  3, 57)  0.8940E-04 (  3,  2, 34)  0.4113E-05 (  4,  2, 33)  0.2547E-06 (  3,  2, 31)  0.1168E-07 (  4,  2, 31)
=======
   0.2229E-02 (  2,  1, 43)  0.1490E-03 (  3,  2, 37)  0.5148E-05 (  4,  2, 37)  0.3395E-06 (  3,  2, 37)  0.1433E-07 (  4,  2, 37)

 OUTPUT CONTROL FOR STRESS PERIOD    1   TIME STEP  95
    SAVE HEAD FOR ALL LAYERS
    SAVE BUDGET
 UBDSV2 SAVING "   CONSTANT HEAD" ON UNIT  53 AT TIME STEP 95, STRESS PERIOD   1
 UBDSV1 SAVING "FLOW RIGHT FACE " ON UNIT  53 AT TIME STEP 95, STRESS PERIOD   1
 UBDSV1 SAVING "FLOW FRONT FACE " ON UNIT  53 AT TIME STEP 95, STRESS PERIOD   1
 UBDSV1 SAVING "FLOW LOWER FACE " ON UNIT  53 AT TIME STEP 95, STRESS PERIOD   1
 UBDSV1 SAVING "            DCDT" ON UNIT  53 AT TIME STEP 95, STRESS PERIOD   1
>>>>>>> Stashed changes

 HEAD WILL BE SAVED ON UNIT   51 AT END OF TIME STEP  95, STRESS PERIOD    1


                                          ================================================
                                                         FROM TIME =  0.95000     TO   0.96000    

 
 SOLVING FOR HEAD 
 FLOW MODEL IS TRANSIENT
 FLOW MODEL CONTAINS CONSTANT-HEAD CELLS


 MAXIMUM STEPSIZE DURING WHICH ANY PARTICLE CANNOT MOVE MORE THAN ONE CELL
<<<<<<< Updated upstream
 =  1.108    (WHEN MIN. R.F.=1)  AT K=   3, I=   2, J=  29

 MAXIMUM STEPSIZE WHICH MEETS STABILITY CRITERION OF THE ADVECTION TERM
 (FOR PURE FINITE-DIFFERENCE OPTION, MIXELM=0) 
 = 0.7687    (WHEN MIN. R.F.=1)  AT K=   3, I=   2, J=  28
=======
 =  1.268    (WHEN MIN. R.F.=1)  AT K=   3, I=   2, J=  31

 MAXIMUM STEPSIZE WHICH MEETS STABILITY CRITERION OF THE ADVECTION TERM
 (FOR PURE FINITE-DIFFERENCE OPTION, MIXELM=0) 
 = 0.8470    (WHEN MIN. R.F.=1)  AT K=   3, I=   2, J=  30
>>>>>>> Stashed changes


 TOTAL NUMBER OF POINT SOURCES/SINKS PRESENT IN THE FLOW MODEL =   240

 MAXIMUM STEPSIZE WHICH MEETS STABILITY CRITERION OF THE SINK & SOURCE TERM
 = 0.1000E+31(WHEN MIN. R.F.=1)  AT K=   0, I=   0, J=   0

 MAXIMUM STEPSIZE WHICH MEETS STABILITY CRITERION OF THE DISPERSION TERM
<<<<<<< Updated upstream
 = 0.4186E-01(WHEN MIN. R.F.=1)  AT K=   3, I=   2, J=  31
=======
 = 0.4541E-01(WHEN MIN. R.F.=1)  AT K=   3, I=   2, J=  30
>>>>>>> Stashed changes


     1 CALLS TO GCG PACKAGE FOR TRANSPORT TIME STEP   1 IN FLOW TIME STEP  96 STRESS PERIOD   1
     5 TOTAL ITERATIONS
  MAXIMUM CONCENTRATION CHANGES FOR EACH ITERATION:
  MAX. CHANGE LAYER,ROW,COL MAX. CHANGE LAYER,ROW,COL MAX. CHANGE LAYER,ROW,COL MAX. CHANGE LAYER,ROW,COL MAX. CHANGE LAYER,ROW,COL
 ------------------------------------------------------------------------------------------------------------------------------------
<<<<<<< Updated upstream
   0.2081E-02 (  2,  3, 57)  0.8894E-04 (  3,  2, 34)  0.4091E-05 (  4,  2, 33)  0.2533E-06 (  3,  2, 31)  0.1162E-07 (  4,  2, 31)
=======
   0.2206E-02 (  2,  1, 43)  0.1481E-03 (  3,  2, 37)  0.5114E-05 (  4,  2, 37)  0.3374E-06 (  3,  2, 37)  0.1425E-07 (  4,  2, 37)
>>>>>>> Stashed changes

 OUTPUT CONTROL FOR STRESS PERIOD    1   TIME STEP  96
    SAVE HEAD FOR ALL LAYERS
    SAVE BUDGET
 UBDSV2 SAVING "   CONSTANT HEAD" ON UNIT  53 AT TIME STEP 96, STRESS PERIOD   1
 UBDSV1 SAVING "FLOW RIGHT FACE " ON UNIT  53 AT TIME STEP 96, STRESS PERIOD   1
 UBDSV1 SAVING "FLOW FRONT FACE " ON UNIT  53 AT TIME STEP 96, STRESS PERIOD   1
 UBDSV1 SAVING "FLOW LOWER FACE " ON UNIT  53 AT TIME STEP 96, STRESS PERIOD   1
 UBDSV1 SAVING "            DCDT" ON UNIT  53 AT TIME STEP 96, STRESS PERIOD   1

 HEAD WILL BE SAVED ON UNIT   51 AT END OF TIME STEP  96, STRESS PERIOD    1


                                          ================================================
                                                         FROM TIME =  0.96000     TO   0.97000    

 
 SOLVING FOR HEAD 
 FLOW MODEL IS TRANSIENT
 FLOW MODEL CONTAINS CONSTANT-HEAD CELLS


 MAXIMUM STEPSIZE DURING WHICH ANY PARTICLE CANNOT MOVE MORE THAN ONE CELL
<<<<<<< Updated upstream
 =  1.108    (WHEN MIN. R.F.=1)  AT K=   3, I=   2, J=  29

 MAXIMUM STEPSIZE WHICH MEETS STABILITY CRITERION OF THE ADVECTION TERM
 (FOR PURE FINITE-DIFFERENCE OPTION, MIXELM=0) 
 = 0.7690    (WHEN MIN. R.F.=1)  AT K=   3, I=   2, J=  28
=======
 =  1.268    (WHEN MIN. R.F.=1)  AT K=   3, I=   2, J=  31

 MAXIMUM STEPSIZE WHICH MEETS STABILITY CRITERION OF THE ADVECTION TERM
 (FOR PURE FINITE-DIFFERENCE OPTION, MIXELM=0) 
 = 0.8472    (WHEN MIN. R.F.=1)  AT K=   3, I=   2, J=  30
>>>>>>> Stashed changes


 TOTAL NUMBER OF POINT SOURCES/SINKS PRESENT IN THE FLOW MODEL =   240

 MAXIMUM STEPSIZE WHICH MEETS STABILITY CRITERION OF THE SINK & SOURCE TERM
 = 0.1000E+31(WHEN MIN. R.F.=1)  AT K=   0, I=   0, J=   0

 MAXIMUM STEPSIZE WHICH MEETS STABILITY CRITERION OF THE DISPERSION TERM
<<<<<<< Updated upstream
 = 0.4187E-01(WHEN MIN. R.F.=1)  AT K=   3, I=   2, J=  31
=======
 = 0.4542E-01(WHEN MIN. R.F.=1)  AT K=   3, I=   2, J=  30
>>>>>>> Stashed changes


     1 CALLS TO GCG PACKAGE FOR TRANSPORT TIME STEP   1 IN FLOW TIME STEP  97 STRESS PERIOD   1
     5 TOTAL ITERATIONS
  MAXIMUM CONCENTRATION CHANGES FOR EACH ITERATION:
  MAX. CHANGE LAYER,ROW,COL MAX. CHANGE LAYER,ROW,COL MAX. CHANGE LAYER,ROW,COL MAX. CHANGE LAYER,ROW,COL MAX. CHANGE LAYER,ROW,COL
 ------------------------------------------------------------------------------------------------------------------------------------
<<<<<<< Updated upstream
   0.2067E-02 (  2,  3, 57)  0.8849E-04 (  3,  2, 34)  0.4070E-05 (  4,  2, 33)  0.2520E-06 (  3,  2, 31)  0.1156E-07 (  4,  2, 31)
=======
   0.2183E-02 (  2,  1, 43)  0.1472E-03 (  3,  2, 37)  0.5081E-05 (  4,  2, 37)  0.3353E-06 (  3,  2, 37)  0.1416E-07 (  4,  2, 37)

 OUTPUT CONTROL FOR STRESS PERIOD    1   TIME STEP  97
    SAVE HEAD FOR ALL LAYERS
    SAVE BUDGET
 UBDSV2 SAVING "   CONSTANT HEAD" ON UNIT  53 AT TIME STEP 97, STRESS PERIOD   1
 UBDSV1 SAVING "FLOW RIGHT FACE " ON UNIT  53 AT TIME STEP 97, STRESS PERIOD   1
 UBDSV1 SAVING "FLOW FRONT FACE " ON UNIT  53 AT TIME STEP 97, STRESS PERIOD   1
 UBDSV1 SAVING "FLOW LOWER FACE " ON UNIT  53 AT TIME STEP 97, STRESS PERIOD   1
 UBDSV1 SAVING "            DCDT" ON UNIT  53 AT TIME STEP 97, STRESS PERIOD   1
>>>>>>> Stashed changes

 HEAD WILL BE SAVED ON UNIT   51 AT END OF TIME STEP  97, STRESS PERIOD    1


                                          ================================================
                                                         FROM TIME =  0.97000     TO   0.98000    

 
 SOLVING FOR HEAD 
 FLOW MODEL IS TRANSIENT
 FLOW MODEL CONTAINS CONSTANT-HEAD CELLS


 MAXIMUM STEPSIZE DURING WHICH ANY PARTICLE CANNOT MOVE MORE THAN ONE CELL
<<<<<<< Updated upstream
 =  1.109    (WHEN MIN. R.F.=1)  AT K=   3, I=   2, J=  29

 MAXIMUM STEPSIZE WHICH MEETS STABILITY CRITERION OF THE ADVECTION TERM
 (FOR PURE FINITE-DIFFERENCE OPTION, MIXELM=0) 
 = 0.7692    (WHEN MIN. R.F.=1)  AT K=   3, I=   2, J=  28
=======
 =  1.269    (WHEN MIN. R.F.=1)  AT K=   3, I=   2, J=  31

 MAXIMUM STEPSIZE WHICH MEETS STABILITY CRITERION OF THE ADVECTION TERM
 (FOR PURE FINITE-DIFFERENCE OPTION, MIXELM=0) 
 = 0.8474    (WHEN MIN. R.F.=1)  AT K=   3, I=   2, J=  30
>>>>>>> Stashed changes


 TOTAL NUMBER OF POINT SOURCES/SINKS PRESENT IN THE FLOW MODEL =   240

 MAXIMUM STEPSIZE WHICH MEETS STABILITY CRITERION OF THE SINK & SOURCE TERM
 = 0.1000E+31(WHEN MIN. R.F.=1)  AT K=   0, I=   0, J=   0

 MAXIMUM STEPSIZE WHICH MEETS STABILITY CRITERION OF THE DISPERSION TERM
<<<<<<< Updated upstream
 = 0.4189E-01(WHEN MIN. R.F.=1)  AT K=   3, I=   2, J=  31
=======
 = 0.4543E-01(WHEN MIN. R.F.=1)  AT K=   3, I=   2, J=  30
>>>>>>> Stashed changes


     1 CALLS TO GCG PACKAGE FOR TRANSPORT TIME STEP   1 IN FLOW TIME STEP  98 STRESS PERIOD   1
     5 TOTAL ITERATIONS
  MAXIMUM CONCENTRATION CHANGES FOR EACH ITERATION:
  MAX. CHANGE LAYER,ROW,COL MAX. CHANGE LAYER,ROW,COL MAX. CHANGE LAYER,ROW,COL MAX. CHANGE LAYER,ROW,COL MAX. CHANGE LAYER,ROW,COL
 ------------------------------------------------------------------------------------------------------------------------------------
<<<<<<< Updated upstream
   0.2053E-02 (  2,  3, 57)  0.8804E-04 (  3,  2, 34)  0.4049E-05 (  4,  2, 33)  0.2507E-06 (  3,  2, 31)  0.1150E-07 (  4,  2, 31)
=======
   0.2160E-02 (  2,  1, 43)  0.1463E-03 (  3,  2, 37)  0.5048E-05 (  4,  2, 37)  0.3332E-06 (  3,  2, 37)  0.1408E-07 (  4,  2, 37)

 OUTPUT CONTROL FOR STRESS PERIOD    1   TIME STEP  98
    SAVE HEAD FOR ALL LAYERS
    SAVE BUDGET
 UBDSV2 SAVING "   CONSTANT HEAD" ON UNIT  53 AT TIME STEP 98, STRESS PERIOD   1
 UBDSV1 SAVING "FLOW RIGHT FACE " ON UNIT  53 AT TIME STEP 98, STRESS PERIOD   1
 UBDSV1 SAVING "FLOW FRONT FACE " ON UNIT  53 AT TIME STEP 98, STRESS PERIOD   1
 UBDSV1 SAVING "FLOW LOWER FACE " ON UNIT  53 AT TIME STEP 98, STRESS PERIOD   1
 UBDSV1 SAVING "            DCDT" ON UNIT  53 AT TIME STEP 98, STRESS PERIOD   1
>>>>>>> Stashed changes

 HEAD WILL BE SAVED ON UNIT   51 AT END OF TIME STEP  98, STRESS PERIOD    1


                                          ================================================
                                                         FROM TIME =  0.98000     TO   0.99000    

 
 SOLVING FOR HEAD 
 FLOW MODEL IS TRANSIENT
 FLOW MODEL CONTAINS CONSTANT-HEAD CELLS


 MAXIMUM STEPSIZE DURING WHICH ANY PARTICLE CANNOT MOVE MORE THAN ONE CELL
<<<<<<< Updated upstream
 =  1.109    (WHEN MIN. R.F.=1)  AT K=   3, I=   2, J=  29

 MAXIMUM STEPSIZE WHICH MEETS STABILITY CRITERION OF THE ADVECTION TERM
 (FOR PURE FINITE-DIFFERENCE OPTION, MIXELM=0) 
 = 0.7694    (WHEN MIN. R.F.=1)  AT K=   3, I=   2, J=  28
=======
 =  1.269    (WHEN MIN. R.F.=1)  AT K=   3, I=   2, J=  31

 MAXIMUM STEPSIZE WHICH MEETS STABILITY CRITERION OF THE ADVECTION TERM
 (FOR PURE FINITE-DIFFERENCE OPTION, MIXELM=0) 
 = 0.8477    (WHEN MIN. R.F.=1)  AT K=   3, I=   2, J=  30
>>>>>>> Stashed changes


 TOTAL NUMBER OF POINT SOURCES/SINKS PRESENT IN THE FLOW MODEL =   240

 MAXIMUM STEPSIZE WHICH MEETS STABILITY CRITERION OF THE SINK & SOURCE TERM
 = 0.1000E+31(WHEN MIN. R.F.=1)  AT K=   0, I=   0, J=   0

 MAXIMUM STEPSIZE WHICH MEETS STABILITY CRITERION OF THE DISPERSION TERM
<<<<<<< Updated upstream
 = 0.4190E-01(WHEN MIN. R.F.=1)  AT K=   3, I=   2, J=  31
=======
 = 0.4545E-01(WHEN MIN. R.F.=1)  AT K=   3, I=   2, J=  30
>>>>>>> Stashed changes


     1 CALLS TO GCG PACKAGE FOR TRANSPORT TIME STEP   1 IN FLOW TIME STEP  99 STRESS PERIOD   1
     5 TOTAL ITERATIONS
  MAXIMUM CONCENTRATION CHANGES FOR EACH ITERATION:
  MAX. CHANGE LAYER,ROW,COL MAX. CHANGE LAYER,ROW,COL MAX. CHANGE LAYER,ROW,COL MAX. CHANGE LAYER,ROW,COL MAX. CHANGE LAYER,ROW,COL
 ------------------------------------------------------------------------------------------------------------------------------------
<<<<<<< Updated upstream
   0.2039E-02 (  2,  3, 57)  0.8760E-04 (  3,  2, 34)  0.4028E-05 (  4,  2, 33)  0.2494E-06 (  3,  2, 31)  0.1144E-07 (  4,  2, 31)
=======
   0.2138E-02 (  2,  1, 43)  0.1454E-03 (  3,  2, 37)  0.5016E-05 (  4,  2, 37)  0.3312E-06 (  3,  2, 37)  0.1399E-07 (  4,  2, 37)

 OUTPUT CONTROL FOR STRESS PERIOD    1   TIME STEP  99
    SAVE HEAD FOR ALL LAYERS
    SAVE BUDGET
 UBDSV2 SAVING "   CONSTANT HEAD" ON UNIT  53 AT TIME STEP 99, STRESS PERIOD   1
 UBDSV1 SAVING "FLOW RIGHT FACE " ON UNIT  53 AT TIME STEP 99, STRESS PERIOD   1
 UBDSV1 SAVING "FLOW FRONT FACE " ON UNIT  53 AT TIME STEP 99, STRESS PERIOD   1
 UBDSV1 SAVING "FLOW LOWER FACE " ON UNIT  53 AT TIME STEP 99, STRESS PERIOD   1
 UBDSV1 SAVING "            DCDT" ON UNIT  53 AT TIME STEP 99, STRESS PERIOD   1
>>>>>>> Stashed changes

 HEAD WILL BE SAVED ON UNIT   51 AT END OF TIME STEP  99, STRESS PERIOD    1


                                          ================================================
                                                         FROM TIME =  0.99000     TO    1.0000    

 
 SOLVING FOR HEAD 
 FLOW MODEL IS TRANSIENT
 FLOW MODEL CONTAINS CONSTANT-HEAD CELLS


 MAXIMUM STEPSIZE DURING WHICH ANY PARTICLE CANNOT MOVE MORE THAN ONE CELL
<<<<<<< Updated upstream
 =  1.109    (WHEN MIN. R.F.=1)  AT K=   3, I=   2, J=  29

 MAXIMUM STEPSIZE WHICH MEETS STABILITY CRITERION OF THE ADVECTION TERM
 (FOR PURE FINITE-DIFFERENCE OPTION, MIXELM=0) 
 = 0.7696    (WHEN MIN. R.F.=1)  AT K=   3, I=   2, J=  28
=======
 =  1.269    (WHEN MIN. R.F.=1)  AT K=   3, I=   2, J=  31

 MAXIMUM STEPSIZE WHICH MEETS STABILITY CRITERION OF THE ADVECTION TERM
 (FOR PURE FINITE-DIFFERENCE OPTION, MIXELM=0) 
 = 0.8479    (WHEN MIN. R.F.=1)  AT K=   3, I=   2, J=  30
>>>>>>> Stashed changes


 TOTAL NUMBER OF POINT SOURCES/SINKS PRESENT IN THE FLOW MODEL =   240

 MAXIMUM STEPSIZE WHICH MEETS STABILITY CRITERION OF THE SINK & SOURCE TERM
 = 0.1000E+31(WHEN MIN. R.F.=1)  AT K=   0, I=   0, J=   0

 MAXIMUM STEPSIZE WHICH MEETS STABILITY CRITERION OF THE DISPERSION TERM
<<<<<<< Updated upstream
 = 0.4191E-01(WHEN MIN. R.F.=1)  AT K=   3, I=   2, J=  31
=======
 = 0.4546E-01(WHEN MIN. R.F.=1)  AT K=   3, I=   2, J=  30
>>>>>>> Stashed changes


     1 CALLS TO GCG PACKAGE FOR TRANSPORT TIME STEP   1 IN FLOW TIME STEP 100 STRESS PERIOD   1
     5 TOTAL ITERATIONS
  MAXIMUM CONCENTRATION CHANGES FOR EACH ITERATION:
  MAX. CHANGE LAYER,ROW,COL MAX. CHANGE LAYER,ROW,COL MAX. CHANGE LAYER,ROW,COL MAX. CHANGE LAYER,ROW,COL MAX. CHANGE LAYER,ROW,COL
 ------------------------------------------------------------------------------------------------------------------------------------
<<<<<<< Updated upstream
   0.2025E-02 (  2,  3, 57)  0.8716E-04 (  3,  2, 34)  0.4007E-05 (  4,  2, 33)  0.2481E-06 (  3,  2, 31)  0.1138E-07 (  4,  2, 31)
=======
   0.2116E-02 (  2,  1, 43)  0.1445E-03 (  3,  2, 37)  0.4984E-05 (  4,  2, 37)  0.3291E-06 (  3,  2, 37)  0.1391E-07 (  4,  2, 37)
>>>>>>> Stashed changes

 OUTPUT CONTROL FOR STRESS PERIOD    1   TIME STEP 100
    SAVE HEAD FOR ALL LAYERS
    SAVE BUDGET
 UBDSV2 SAVING "   CONSTANT HEAD" ON UNIT  53 AT TIME STEP100, STRESS PERIOD   1
 UBDSV1 SAVING "FLOW RIGHT FACE " ON UNIT  53 AT TIME STEP100, STRESS PERIOD   1
 UBDSV1 SAVING "FLOW FRONT FACE " ON UNIT  53 AT TIME STEP100, STRESS PERIOD   1
 UBDSV1 SAVING "FLOW LOWER FACE " ON UNIT  53 AT TIME STEP100, STRESS PERIOD   1
 UBDSV1 SAVING "            DCDT" ON UNIT  53 AT TIME STEP100, STRESS PERIOD   1



 >>>>>>>>>>>>>>>>>>>>>>>>>>>>>>>>>>>>>>>>>>>>>>>>>>>>>>>FOR COMPONENT NO. 01<<<<<<<<<<<<<<<<<<<<<<<<<<<<<<<<<<<<<<<<<<<<<<<<<<<<<<<


                                            -------------------------------------------
                                                      TRANSPORT STEP NO.    1
                                            -------------------------------------------

 TOTAL ELAPSED TIME SINCE BEGINNING OF SIMULATION =   1.000000    D   
 .....................................................................

                     CUMULATIVE MASS BUDGETS AT END OF TRANSPORT STEP    1, TIME STEP  100, STRESS PERIOD    1
                     ------------------------------------------------------------------------------------------

                                                             IN                           OUT
                                                      ----------------             ----------------
<<<<<<< Updated upstream
                               CONSTANT CONCENTRATION:    142.9577                   -1.735279    
                                        CONSTANT HEAD:    0.000000                    0.000000    
                               MASS STOR (FLOW MODEL):    0.000000                    0.000000    
                                MASS STORAGE (SOLUTE):    0.000000                   -141.2224    
                            ---------------------------------------------------------------------------
                                              [TOTAL]:    142.9577     KG            -142.9577     KG  

                                                          NET (IN - OUT):  -0.1568503E-06
                                                   DISCREPANCY (PERCENT):  -0.1097179E-06
=======
                               CONSTANT CONCENTRATION:    128.9165                   -1.589339    
                                        CONSTANT HEAD:    0.000000                    0.000000    
                               MASS STOR (FLOW MODEL):    0.000000                    0.000000    
                                MASS STORAGE (SOLUTE):    0.000000                   -127.3271    
                            ---------------------------------------------------------------------------
                                              [TOTAL]:    128.9165     KG            -128.9165     KG  

                                                          NET (IN - OUT):   0.1009859E-05
                                                   DISCREPANCY (PERCENT):   0.7833433E-06

 HEAD WILL BE SAVED ON UNIT   51 AT END OF TIME STEP 100, STRESS PERIOD    1
>>>>>>> Stashed changes
1
  MASS BUDGET FOR ENTIRE MODEL AT END OF TIME STEP100 IN STRESS PERIOD   1
  ------------------------------------------------------------------------------

     CUMULATIVE MASS      M       RATES FOR THIS TIME STEP      M/T
     ------------------                 ------------------------

           IN:                                      IN:
           ---                                      ---
             STORAGE =           0.0000               STORAGE =           0.0000
<<<<<<< Updated upstream
       CONSTANT HEAD =         488.8824         CONSTANT HEAD =         482.8185
                DCDT =           0.0000                  DCDT =           0.0000

            TOTAL IN =         488.8824              TOTAL IN =         482.8185
=======
       CONSTANT HEAD =         473.4602         CONSTANT HEAD =         467.7870
                DCDT =           0.0000                  DCDT =           0.0000

            TOTAL IN =         473.4602              TOTAL IN =         467.7870
>>>>>>> Stashed changes

          OUT:                                     OUT:
          ----                                     ----
             STORAGE =           0.0000               STORAGE =           0.0000
<<<<<<< Updated upstream
       CONSTANT HEAD =         387.7802         CONSTANT HEAD =         392.2856
                DCDT =         101.1021                  DCDT =          90.5327

           TOTAL OUT =         488.8823             TOTAL OUT =         482.8184

            IN - OUT =       8.7027E-05              IN - OUT =       1.0376E-04
=======
       CONSTANT HEAD =         382.2769         CONSTANT HEAD =         385.4503
                DCDT =          91.1831                  DCDT =          82.3366

           TOTAL OUT =         473.4600             TOTAL OUT =         467.7868

            IN - OUT =       1.2334E-04              IN - OUT =       1.5558E-04
>>>>>>> Stashed changes

 PERCENT DISCREPANCY =           0.00     PERCENT DISCREPANCY =           0.00



0


          TIME SUMMARY AT END OF TRANSPORT STEP    1 IN TIME STEP  100 IN STRESS PERIOD   1
                    SECONDS     MINUTES      HOURS       DAYS        YEARS
                    -----------------------------------------------------------
  TRANS STEP LENGTH  864.00      14.400     0.24000     1.00000E-02 2.73785E-05
   TIME STEP LENGTH  864.00      14.400     0.24000     1.00000E-02 2.73785E-05
 STRESS PERIOD TIME  86400.      1440.0      24.000      1.0000     2.73785E-03
         TOTAL TIME  86400.      1440.0      24.000      1.0000     2.73785E-03
1


                                   ++++++++++++++++++++++++++++++++++++++++++++++++++++++++++++++
                                                       STRESS PERIOD NO.  002
                                   ++++++++++++++++++++++++++++++++++++++++++++++++++++++++++++++


 LENGTH OF CURRENT STRESS PERIOD =   100.0000    
 NUMBER OF TIME STEPS FOR CURRENT STRESS PERIOD =  100
 TIME STEP MULTIPLIER USED IN FLOW SOLUTION =   1.000000    
 USER-SPECIFIED TRANSPORT STEPSIZE =   0.000000    D   
 MAXIMUM NUMBER OF TRANSPORT STEPS ALLOWED  IN ONE FLOW TIME STEP =     50000
 MULTIPLIER FOR SUCCESSIVE TRANSPORT STEPS  [USED IN IMPLICIT SCHEMES] =     1.000
 MAXIMUM TRANSPORT STEP SIZE  [USED IN IMPLICIT SCHEMES] =   0.000000    D   
1
                            STRESS PERIOD NO.    2, LENGTH =   100.0000    
                            -----------------------------------------------

                              NUMBER OF TIME STEPS =   100

                               MULTIPLIER FOR DELT =     1.000

                            INITIAL TIME STEP SIZE =   1.000000    

 NO. OF POINT SINKS/SOURCES OF SPECIFIED CONCONCENTRATIONS =    0 IN STRESS PERIOD  2

 CHD NO.   LAYER   ROW   COL    START HEAD        END HEAD         
 ------------------------------------------------------------------
      1      1      1     31       19.50           19.50    
      2      1      1     32       19.50           19.50    
      3      1      1     33       19.50           19.50    
      4      1      1     34       19.50           19.50    
      5      1      1     35       19.50           19.50    
      6      1      1     36       19.50           19.50    
      7      1      1     37       19.50           19.50    
      8      1      1     38       19.50           19.50    
      9      1      1     39       19.50           19.50    
     10      1      1     40       19.50           19.50    
     11      1      1     41       19.50           19.50    
     12      1      1     42       19.50           19.50    
     13      1      1     43       19.50           19.50    
     14      1      1     44       19.50           19.50    
     15      1      1     45       19.50           19.50    
     16      1      1     46       19.50           19.50    
     17      1      1     47       19.50           19.50    
     18      1      1     48       19.50           19.50    
     19      1      1     49       19.50           19.50    
     20      1      1     50       19.50           19.50    
     21      1      1     51       19.50           19.50    
     22      1      1     52       19.50           19.50    
     23      1      1     53       19.50           19.50    
     24      1      1     54       19.50           19.50    
     25      1      1     55       19.50           19.50    
     26      1      1     56       19.50           19.50    
     27      1      1     57       19.50           19.50    
     28      1      1     58       19.50           19.50    
     29      1      1     59       19.50           19.50    
     30      1      1     60       19.50           19.50    
     31      1      1     61       19.50           19.50    
     32      1      1     62       19.50           19.50    
     33      1      1     63       19.50           19.50    
     34      1      1     64       19.50           19.50    
     35      1      1     65       19.50           19.50    
     36      1      1     66       19.50           19.50    
     37      1      1     67       19.50           19.50    
     38      1      1     68       19.50           19.50    
     39      1      1     69       19.50           19.50    
     40      1      1     70       19.50           19.50    
     41      1      2     31       19.50           19.50    
     42      1      2     32       19.50           19.50    
     43      1      2     33       19.50           19.50    
     44      1      2     34       19.50           19.50    
     45      1      2     35       19.50           19.50    
     46      1      2     36       19.50           19.50    
     47      1      2     37       19.50           19.50    
     48      1      2     38       19.50           19.50    
     49      1      2     39       19.50           19.50    
     50      1      2     40       19.50           19.50    
     51      1      2     41       19.50           19.50    
     52      1      2     42       19.50           19.50    
     53      1      2     43       19.50           19.50    
     54      1      2     44       19.50           19.50    
     55      1      2     45       19.50           19.50    
     56      1      2     46       19.50           19.50    
     57      1      2     47       19.50           19.50    
     58      1      2     48       19.50           19.50    
     59      1      2     49       19.50           19.50    
     60      1      2     50       19.50           19.50    
     61      1      2     51       19.50           19.50    
     62      1      2     52       19.50           19.50    
     63      1      2     53       19.50           19.50    
     64      1      2     54       19.50           19.50    
     65      1      2     55       19.50           19.50    
     66      1      2     56       19.50           19.50    
     67      1      2     57       19.50           19.50    
     68      1      2     58       19.50           19.50    
     69      1      2     59       19.50           19.50    
     70      1      2     60       19.50           19.50    
     71      1      2     61       19.50           19.50    
     72      1      2     62       19.50           19.50    
     73      1      2     63       19.50           19.50    
     74      1      2     64       19.50           19.50    
     75      1      2     65       19.50           19.50    
     76      1      2     66       19.50           19.50    
     77      1      2     67       19.50           19.50    
     78      1      2     68       19.50           19.50    
     79      1      2     69       19.50           19.50    
     80      1      2     70       19.50           19.50    
     81      1      3     31       19.50           19.50    
     82      1      3     32       19.50           19.50    
     83      1      3     33       19.50           19.50    
     84      1      3     34       19.50           19.50    
     85      1      3     35       19.50           19.50    
     86      1      3     36       19.50           19.50    
     87      1      3     37       19.50           19.50    
     88      1      3     38       19.50           19.50    
     89      1      3     39       19.50           19.50    
     90      1      3     40       19.50           19.50    
     91      1      3     41       19.50           19.50    
     92      1      3     42       19.50           19.50    
     93      1      3     43       19.50           19.50    
     94      1      3     44       19.50           19.50    
     95      1      3     45       19.50           19.50    
     96      1      3     46       19.50           19.50    
     97      1      3     47       19.50           19.50    
     98      1      3     48       19.50           19.50    
     99      1      3     49       19.50           19.50    
    100      1      3     50       19.50           19.50    
    101      1      3     51       19.50           19.50    
    102      1      3     52       19.50           19.50    
    103      1      3     53       19.50           19.50    
    104      1      3     54       19.50           19.50    
    105      1      3     55       19.50           19.50    
    106      1      3     56       19.50           19.50    
    107      1      3     57       19.50           19.50    
    108      1      3     58       19.50           19.50    
    109      1      3     59       19.50           19.50    
    110      1      3     60       19.50           19.50    
    111      1      3     61       19.50           19.50    
    112      1      3     62       19.50           19.50    
    113      1      3     63       19.50           19.50    
    114      1      3     64       19.50           19.50    
    115      1      3     65       19.50           19.50    
    116      1      3     66       19.50           19.50    
    117      1      3     67       19.50           19.50    
    118      1      3     68       19.50           19.50    
    119      1      3     69       19.50           19.50    
    120      1      3     70       19.50           19.50    


    120 TIME-VARIANT SPECIFIED-HEAD CELLS


                                          ================================================
                                                         FROM TIME =   1.0000     TO    2.0000    

 
 SOLVING FOR HEAD 
 FLOW MODEL IS TRANSIENT
 FLOW MODEL CONTAINS CONSTANT-HEAD CELLS


 MAXIMUM STEPSIZE DURING WHICH ANY PARTICLE CANNOT MOVE MORE THAN ONE CELL
<<<<<<< Updated upstream
 = 0.1642    (WHEN MIN. R.F.=1)  AT K=   3, I=   2, J=  29

 MAXIMUM STEPSIZE WHICH MEETS STABILITY CRITERION OF THE ADVECTION TERM
 (FOR PURE FINITE-DIFFERENCE OPTION, MIXELM=0) 
 = 0.1140    (WHEN MIN. R.F.=1)  AT K=   3, I=   2, J=  28
=======
 = 0.1873    (WHEN MIN. R.F.=1)  AT K=   3, I=   2, J=  31

 MAXIMUM STEPSIZE WHICH MEETS STABILITY CRITERION OF THE ADVECTION TERM
 (FOR PURE FINITE-DIFFERENCE OPTION, MIXELM=0) 
 = 0.1251    (WHEN MIN. R.F.=1)  AT K=   3, I=   2, J=  30
>>>>>>> Stashed changes


 TOTAL NUMBER OF POINT SOURCES/SINKS PRESENT IN THE FLOW MODEL =   240

 MAXIMUM STEPSIZE WHICH MEETS STABILITY CRITERION OF THE SINK & SOURCE TERM
 = 0.1000E+31(WHEN MIN. R.F.=1)  AT K=   0, I=   0, J=   0

 MAXIMUM STEPSIZE WHICH MEETS STABILITY CRITERION OF THE DISPERSION TERM
<<<<<<< Updated upstream
 = 0.6208E-02(WHEN MIN. R.F.=1)  AT K=   3, I=   2, J=  31


     1 CALLS TO GCG PACKAGE FOR TRANSPORT TIME STEP   1 IN FLOW TIME STEP   1 STRESS PERIOD   2
    57 TOTAL ITERATIONS
=======
 = 0.6719E-02(WHEN MIN. R.F.=1)  AT K=   3, I=   2, J=  30


     1 CALLS TO GCG PACKAGE FOR TRANSPORT TIME STEP   1 IN FLOW TIME STEP   1 STRESS PERIOD   2
    63 TOTAL ITERATIONS
>>>>>>> Stashed changes

 OUTPUT CONTROL FOR STRESS PERIOD    2   TIME STEP   1
    SAVE HEAD FOR ALL LAYERS
    SAVE BUDGET
0WARNING: NUMERICAL OSCILLATION ENCOUNTERED
 ONE OR MORE CELL CONCENTRATIONS LESS THAN CRHOREF
 SMALLEST DENSITY =  0.100E+04
<<<<<<< Updated upstream
 AT CELL (I,J,K) = (   2,  67,  16)
=======
 AT CELL (I,J,K) = (   1,  60,  20)
>>>>>>> Stashed changes

 
 SOLVING FOR HEAD 
 FLOW MODEL IS TRANSIENT
 FLOW MODEL CONTAINS CONSTANT-HEAD CELLS


 MAXIMUM STEPSIZE DURING WHICH ANY PARTICLE CANNOT MOVE MORE THAN ONE CELL
<<<<<<< Updated upstream
 = 0.1608    (WHEN MIN. R.F.=1)  AT K=   3, I=   2, J=  29

 MAXIMUM STEPSIZE WHICH MEETS STABILITY CRITERION OF THE ADVECTION TERM
 (FOR PURE FINITE-DIFFERENCE OPTION, MIXELM=0) 
 = 0.1115    (WHEN MIN. R.F.=1)  AT K=   3, I=   2, J=  28
=======
 = 0.1842    (WHEN MIN. R.F.=1)  AT K=   3, I=   2, J=  31

 MAXIMUM STEPSIZE WHICH MEETS STABILITY CRITERION OF THE ADVECTION TERM
 (FOR PURE FINITE-DIFFERENCE OPTION, MIXELM=0) 
 = 0.1231    (WHEN MIN. R.F.=1)  AT K=   3, I=   2, J=  30
>>>>>>> Stashed changes


 TOTAL NUMBER OF POINT SOURCES/SINKS PRESENT IN THE FLOW MODEL =   240

 MAXIMUM STEPSIZE WHICH MEETS STABILITY CRITERION OF THE SINK & SOURCE TERM
 = 0.1000E+31(WHEN MIN. R.F.=1)  AT K=   0, I=   0, J=   0

 MAXIMUM STEPSIZE WHICH MEETS STABILITY CRITERION OF THE DISPERSION TERM
<<<<<<< Updated upstream
 = 0.6075E-02(WHEN MIN. R.F.=1)  AT K=   3, I=   2, J=  31
     1 CALLS TO GCG PACKAGE FOR TRANSPORT TIME STEP   2 IN FLOW TIME STEP   1 STRESS PERIOD   2
    27 TOTAL ITERATIONS
0WARNING: NUMERICAL OSCILLATION ENCOUNTERED
 ONE OR MORE CELL CONCENTRATIONS LESS THAN CRHOREF
 SMALLEST DENSITY =  0.100E+04
 AT CELL (I,J,K) = (   2,  67,  16)
=======
 = 0.6583E-02(WHEN MIN. R.F.=1)  AT K=   3, I=   2, J=  30
     1 CALLS TO GCG PACKAGE FOR TRANSPORT TIME STEP   2 IN FLOW TIME STEP   1 STRESS PERIOD   2
    17 TOTAL ITERATIONS
  MAXIMUM CONCENTRATION CHANGES FOR EACH ITERATION:
  MAX. CHANGE LAYER,ROW,COL MAX. CHANGE LAYER,ROW,COL MAX. CHANGE LAYER,ROW,COL MAX. CHANGE LAYER,ROW,COL MAX. CHANGE LAYER,ROW,COL
 ------------------------------------------------------------------------------------------------------------------------------------
   0.1857E-01 (  2,  1, 47)  0.6798E-02 (  3,  2, 44)  0.3090E-02 (  4,  2, 39)  0.1909E-02 (  3,  2, 37)  0.8853E-03 (  4,  2, 37)
   0.3742E-03 (  3,  2, 37)  0.1345E-03 (  4,  2, 37)  0.6261E-04 (  3,  2, 43)  0.2716E-04 (  3,  2, 42)  0.1151E-04 (  4,  2, 39)
   0.6270E-05 (  3,  2, 39)  0.2644E-05 (  4,  2, 38)  0.1304E-05 (  3,  2, 38)  0.5439E-06 (  4,  2, 42)  0.2495E-06 (  4,  2, 41)
   0.1027E-06 (  5,  2, 40)  0.5904E-07 (  4,  2, 40)
 UBDSV1 SAVING "         STORAGE" ON UNIT  53 AT TIME STEP  1, STRESS PERIOD   2
 UBDSV2 SAVING "   CONSTANT HEAD" ON UNIT  53 AT TIME STEP  1, STRESS PERIOD   2
 UBDSV1 SAVING "FLOW RIGHT FACE " ON UNIT  53 AT TIME STEP  1, STRESS PERIOD   2
 UBDSV1 SAVING "FLOW FRONT FACE " ON UNIT  53 AT TIME STEP  1, STRESS PERIOD   2
 UBDSV1 SAVING "FLOW LOWER FACE " ON UNIT  53 AT TIME STEP  1, STRESS PERIOD   2
 UBDSV1 SAVING "            DCDT" ON UNIT  53 AT TIME STEP  1, STRESS PERIOD   2
0WARNING: NUMERICAL OSCILLATION ENCOUNTERED
 ONE OR MORE CELL CONCENTRATIONS LESS THAN CRHOREF
 SMALLEST DENSITY =  0.100E+04
 AT CELL (I,J,K) = (   1,  60,  20)


 HEAD WILL BE SAVED ON UNIT   51 AT END OF TIME STEP   1, STRESS PERIOD    2


                                          ================================================
                                                         FROM TIME =   2.0000     TO    3.0000    
>>>>>>> Stashed changes

 
 SOLVING FOR HEAD 
 FLOW MODEL IS TRANSIENT
 FLOW MODEL CONTAINS CONSTANT-HEAD CELLS


 MAXIMUM STEPSIZE DURING WHICH ANY PARTICLE CANNOT MOVE MORE THAN ONE CELL
<<<<<<< Updated upstream
 = 0.1613    (WHEN MIN. R.F.=1)  AT K=   3, I=   2, J=  29

 MAXIMUM STEPSIZE WHICH MEETS STABILITY CRITERION OF THE ADVECTION TERM
 (FOR PURE FINITE-DIFFERENCE OPTION, MIXELM=0) 
 = 0.1118    (WHEN MIN. R.F.=1)  AT K=   3, I=   2, J=  28
=======
 = 0.1845    (WHEN MIN. R.F.=1)  AT K=   3, I=   2, J=  31

 MAXIMUM STEPSIZE WHICH MEETS STABILITY CRITERION OF THE ADVECTION TERM
 (FOR PURE FINITE-DIFFERENCE OPTION, MIXELM=0) 
 = 0.1233    (WHEN MIN. R.F.=1)  AT K=   3, I=   2, J=  30
>>>>>>> Stashed changes


 TOTAL NUMBER OF POINT SOURCES/SINKS PRESENT IN THE FLOW MODEL =   240

 MAXIMUM STEPSIZE WHICH MEETS STABILITY CRITERION OF THE SINK & SOURCE TERM
 = 0.1000E+31(WHEN MIN. R.F.=1)  AT K=   0, I=   0, J=   0

 MAXIMUM STEPSIZE WHICH MEETS STABILITY CRITERION OF THE DISPERSION TERM
<<<<<<< Updated upstream
 = 0.6095E-02(WHEN MIN. R.F.=1)  AT K=   3, I=   2, J=  31
     1 CALLS TO GCG PACKAGE FOR TRANSPORT TIME STEP   3 IN FLOW TIME STEP   1 STRESS PERIOD   2
    16 TOTAL ITERATIONS
  MAXIMUM CONCENTRATION CHANGES FOR EACH ITERATION:
  MAX. CHANGE LAYER,ROW,COL MAX. CHANGE LAYER,ROW,COL MAX. CHANGE LAYER,ROW,COL MAX. CHANGE LAYER,ROW,COL MAX. CHANGE LAYER,ROW,COL
 ------------------------------------------------------------------------------------------------------------------------------------
   0.1748E-01 (  3,  3, 57)  0.5309E-02 (  3,  3, 41)  0.2073E-02 (  4,  2, 42)  0.9845E-03 (  3,  2, 33)  0.4622E-03 (  2,  2, 33)
   0.2559E-03 (  3,  2, 33)  0.1429E-03 (  3,  3, 32)  0.6581E-04 (  4,  3, 32)  0.2291E-04 (  3,  2, 31)  0.1057E-04 (  3,  2, 30)
   0.4871E-05 (  3,  3, 30)  0.2906E-05 (  4,  3, 30)  0.1169E-05 (  3,  3, 30)  0.4979E-06 (  3,  3, 29)  0.2231E-06 (  4,  3, 29)
   0.9714E-07 (  4,  3, 33)
0WARNING: NUMERICAL OSCILLATION ENCOUNTERED
 ONE OR MORE CELL CONCENTRATIONS LESS THAN CRHOREF
 SMALLEST DENSITY =  0.100E+04
 AT CELL (I,J,K) = (   2,  67,  16)



                                          ================================================
                                                         FROM TIME =   2.0000     TO    3.0000    
=======
 = 0.6592E-02(WHEN MIN. R.F.=1)  AT K=   3, I=   2, J=  30


     1 CALLS TO GCG PACKAGE FOR TRANSPORT TIME STEP   1 IN FLOW TIME STEP   2 STRESS PERIOD   2
    28 TOTAL ITERATIONS

 OUTPUT CONTROL FOR STRESS PERIOD    2   TIME STEP   2
    SAVE HEAD FOR ALL LAYERS
    SAVE BUDGET
0WARNING: NUMERICAL OSCILLATION ENCOUNTERED
 ONE OR MORE CELL CONCENTRATIONS LESS THAN CRHOREF
 SMALLEST DENSITY =  0.100E+04
 AT CELL (I,J,K) = (   1,  62,  20)
>>>>>>> Stashed changes

 
 SOLVING FOR HEAD 
 FLOW MODEL IS TRANSIENT
 FLOW MODEL CONTAINS CONSTANT-HEAD CELLS


 MAXIMUM STEPSIZE DURING WHICH ANY PARTICLE CANNOT MOVE MORE THAN ONE CELL
<<<<<<< Updated upstream
 = 0.1614    (WHEN MIN. R.F.=1)  AT K=   3, I=   2, J=  29

 MAXIMUM STEPSIZE WHICH MEETS STABILITY CRITERION OF THE ADVECTION TERM
 (FOR PURE FINITE-DIFFERENCE OPTION, MIXELM=0) 
 = 0.1120    (WHEN MIN. R.F.=1)  AT K=   3, I=   2, J=  28
=======
 = 0.1850    (WHEN MIN. R.F.=1)  AT K=   3, I=   2, J=  31

 MAXIMUM STEPSIZE WHICH MEETS STABILITY CRITERION OF THE ADVECTION TERM
 (FOR PURE FINITE-DIFFERENCE OPTION, MIXELM=0) 
 = 0.1236    (WHEN MIN. R.F.=1)  AT K=   3, I=   2, J=  30
>>>>>>> Stashed changes


 TOTAL NUMBER OF POINT SOURCES/SINKS PRESENT IN THE FLOW MODEL =   240

 MAXIMUM STEPSIZE WHICH MEETS STABILITY CRITERION OF THE SINK & SOURCE TERM
 = 0.1000E+31(WHEN MIN. R.F.=1)  AT K=   0, I=   0, J=   0

 MAXIMUM STEPSIZE WHICH MEETS STABILITY CRITERION OF THE DISPERSION TERM
<<<<<<< Updated upstream
 = 0.6102E-02(WHEN MIN. R.F.=1)  AT K=   3, I=   2, J=  31


     1 CALLS TO GCG PACKAGE FOR TRANSPORT TIME STEP   1 IN FLOW TIME STEP   2 STRESS PERIOD   2
    26 TOTAL ITERATIONS

 NO OUTPUT CONTROL FOR STRESS PERIOD    2   TIME STEP   2
0WARNING: NUMERICAL OSCILLATION ENCOUNTERED
 ONE OR MORE CELL CONCENTRATIONS LESS THAN CRHOREF
 SMALLEST DENSITY =  0.100E+04
 AT CELL (I,J,K) = (   2,  67,  16)
=======
 = 0.6611E-02(WHEN MIN. R.F.=1)  AT K=   3, I=   2, J=  30
     1 CALLS TO GCG PACKAGE FOR TRANSPORT TIME STEP   2 IN FLOW TIME STEP   2 STRESS PERIOD   2
    27 TOTAL ITERATIONS
0WARNING: NUMERICAL OSCILLATION ENCOUNTERED
 ONE OR MORE CELL CONCENTRATIONS LESS THAN CRHOREF
 SMALLEST DENSITY =  0.100E+04
 AT CELL (I,J,K) = (   1,  62,  20)
>>>>>>> Stashed changes

 
 SOLVING FOR HEAD 
 FLOW MODEL IS TRANSIENT
 FLOW MODEL CONTAINS CONSTANT-HEAD CELLS


 MAXIMUM STEPSIZE DURING WHICH ANY PARTICLE CANNOT MOVE MORE THAN ONE CELL
<<<<<<< Updated upstream
 = 0.1617    (WHEN MIN. R.F.=1)  AT K=   3, I=   2, J=  29

 MAXIMUM STEPSIZE WHICH MEETS STABILITY CRITERION OF THE ADVECTION TERM
 (FOR PURE FINITE-DIFFERENCE OPTION, MIXELM=0) 
 = 0.1122    (WHEN MIN. R.F.=1)  AT K=   3, I=   2, J=  28
=======
 = 0.1853    (WHEN MIN. R.F.=1)  AT K=   3, I=   2, J=  31

 MAXIMUM STEPSIZE WHICH MEETS STABILITY CRITERION OF THE ADVECTION TERM
 (FOR PURE FINITE-DIFFERENCE OPTION, MIXELM=0) 
 = 0.1238    (WHEN MIN. R.F.=1)  AT K=   3, I=   2, J=  30
>>>>>>> Stashed changes


 TOTAL NUMBER OF POINT SOURCES/SINKS PRESENT IN THE FLOW MODEL =   240

 MAXIMUM STEPSIZE WHICH MEETS STABILITY CRITERION OF THE SINK & SOURCE TERM
 = 0.1000E+31(WHEN MIN. R.F.=1)  AT K=   0, I=   0, J=   0

 MAXIMUM STEPSIZE WHICH MEETS STABILITY CRITERION OF THE DISPERSION TERM
<<<<<<< Updated upstream
 = 0.6117E-02(WHEN MIN. R.F.=1)  AT K=   3, I=   2, J=  31
     1 CALLS TO GCG PACKAGE FOR TRANSPORT TIME STEP   2 IN FLOW TIME STEP   2 STRESS PERIOD   2
=======
 = 0.6626E-02(WHEN MIN. R.F.=1)  AT K=   3, I=   2, J=  30
     1 CALLS TO GCG PACKAGE FOR TRANSPORT TIME STEP   3 IN FLOW TIME STEP   2 STRESS PERIOD   2
>>>>>>> Stashed changes
    27 TOTAL ITERATIONS
0WARNING: NUMERICAL OSCILLATION ENCOUNTERED
 ONE OR MORE CELL CONCENTRATIONS LESS THAN CRHOREF
 SMALLEST DENSITY =  0.100E+04
<<<<<<< Updated upstream
 AT CELL (I,J,K) = (   2,  67,  16)
=======
 AT CELL (I,J,K) = (   1,  62,  20)
>>>>>>> Stashed changes

 
 SOLVING FOR HEAD 
 FLOW MODEL IS TRANSIENT
 FLOW MODEL CONTAINS CONSTANT-HEAD CELLS


 MAXIMUM STEPSIZE DURING WHICH ANY PARTICLE CANNOT MOVE MORE THAN ONE CELL
<<<<<<< Updated upstream
 = 0.1620    (WHEN MIN. R.F.=1)  AT K=   3, I=   2, J=  29

 MAXIMUM STEPSIZE WHICH MEETS STABILITY CRITERION OF THE ADVECTION TERM
 (FOR PURE FINITE-DIFFERENCE OPTION, MIXELM=0) 
 = 0.1124    (WHEN MIN. R.F.=1)  AT K=   3, I=   2, J=  28
=======
 = 0.1856    (WHEN MIN. R.F.=1)  AT K=   3, I=   2, J=  31

 MAXIMUM STEPSIZE WHICH MEETS STABILITY CRITERION OF THE ADVECTION TERM
 (FOR PURE FINITE-DIFFERENCE OPTION, MIXELM=0) 
 = 0.1240    (WHEN MIN. R.F.=1)  AT K=   3, I=   2, J=  30
>>>>>>> Stashed changes


 TOTAL NUMBER OF POINT SOURCES/SINKS PRESENT IN THE FLOW MODEL =   240

 MAXIMUM STEPSIZE WHICH MEETS STABILITY CRITERION OF THE SINK & SOURCE TERM
 = 0.1000E+31(WHEN MIN. R.F.=1)  AT K=   0, I=   0, J=   0

 MAXIMUM STEPSIZE WHICH MEETS STABILITY CRITERION OF THE DISPERSION TERM
<<<<<<< Updated upstream
 = 0.6129E-02(WHEN MIN. R.F.=1)  AT K=   3, I=   2, J=  31
     1 CALLS TO GCG PACKAGE FOR TRANSPORT TIME STEP   3 IN FLOW TIME STEP   2 STRESS PERIOD   2
=======
 = 0.6638E-02(WHEN MIN. R.F.=1)  AT K=   3, I=   2, J=  30
     1 CALLS TO GCG PACKAGE FOR TRANSPORT TIME STEP   4 IN FLOW TIME STEP   2 STRESS PERIOD   2
>>>>>>> Stashed changes
    28 TOTAL ITERATIONS
0WARNING: NUMERICAL OSCILLATION ENCOUNTERED
 ONE OR MORE CELL CONCENTRATIONS LESS THAN CRHOREF
 SMALLEST DENSITY =  0.100E+04
<<<<<<< Updated upstream
 AT CELL (I,J,K) = (   2,  67,  16)
=======
 AT CELL (I,J,K) = (   1,  62,  20)
>>>>>>> Stashed changes

 
 SOLVING FOR HEAD 
 FLOW MODEL IS TRANSIENT
 FLOW MODEL CONTAINS CONSTANT-HEAD CELLS


 MAXIMUM STEPSIZE DURING WHICH ANY PARTICLE CANNOT MOVE MORE THAN ONE CELL
<<<<<<< Updated upstream
 = 0.1622    (WHEN MIN. R.F.=1)  AT K=   3, I=   2, J=  29

 MAXIMUM STEPSIZE WHICH MEETS STABILITY CRITERION OF THE ADVECTION TERM
 (FOR PURE FINITE-DIFFERENCE OPTION, MIXELM=0) 
 = 0.1125    (WHEN MIN. R.F.=1)  AT K=   3, I=   2, J=  28
=======
 = 0.1859    (WHEN MIN. R.F.=1)  AT K=   3, I=   2, J=  31

 MAXIMUM STEPSIZE WHICH MEETS STABILITY CRITERION OF THE ADVECTION TERM
 (FOR PURE FINITE-DIFFERENCE OPTION, MIXELM=0) 
 = 0.1241    (WHEN MIN. R.F.=1)  AT K=   3, I=   2, J=  30
>>>>>>> Stashed changes


 TOTAL NUMBER OF POINT SOURCES/SINKS PRESENT IN THE FLOW MODEL =   240

 MAXIMUM STEPSIZE WHICH MEETS STABILITY CRITERION OF THE SINK & SOURCE TERM
 = 0.1000E+31(WHEN MIN. R.F.=1)  AT K=   0, I=   0, J=   0

 MAXIMUM STEPSIZE WHICH MEETS STABILITY CRITERION OF THE DISPERSION TERM
<<<<<<< Updated upstream
 = 0.6139E-02(WHEN MIN. R.F.=1)  AT K=   3, I=   2, J=  31
     1 CALLS TO GCG PACKAGE FOR TRANSPORT TIME STEP   4 IN FLOW TIME STEP   2 STRESS PERIOD   2
    25 TOTAL ITERATIONS
0WARNING: NUMERICAL OSCILLATION ENCOUNTERED
 ONE OR MORE CELL CONCENTRATIONS LESS THAN CRHOREF
 SMALLEST DENSITY =  0.100E+04
 AT CELL (I,J,K) = (   2,  67,  16)
=======
 = 0.6648E-02(WHEN MIN. R.F.=1)  AT K=   3, I=   2, J=  30
     1 CALLS TO GCG PACKAGE FOR TRANSPORT TIME STEP   5 IN FLOW TIME STEP   2 STRESS PERIOD   2
    29 TOTAL ITERATIONS
0WARNING: NUMERICAL OSCILLATION ENCOUNTERED
 ONE OR MORE CELL CONCENTRATIONS LESS THAN CRHOREF
 SMALLEST DENSITY =  0.100E+04
 AT CELL (I,J,K) = (   1,  62,  20)
>>>>>>> Stashed changes

 
 SOLVING FOR HEAD 
 FLOW MODEL IS TRANSIENT
 FLOW MODEL CONTAINS CONSTANT-HEAD CELLS


 MAXIMUM STEPSIZE DURING WHICH ANY PARTICLE CANNOT MOVE MORE THAN ONE CELL
<<<<<<< Updated upstream
 = 0.1624    (WHEN MIN. R.F.=1)  AT K=   3, I=   2, J=  29

 MAXIMUM STEPSIZE WHICH MEETS STABILITY CRITERION OF THE ADVECTION TERM
 (FOR PURE FINITE-DIFFERENCE OPTION, MIXELM=0) 
 = 0.1126    (WHEN MIN. R.F.=1)  AT K=   3, I=   2, J=  28
=======
 = 0.1860    (WHEN MIN. R.F.=1)  AT K=   3, I=   2, J=  31

 MAXIMUM STEPSIZE WHICH MEETS STABILITY CRITERION OF THE ADVECTION TERM
 (FOR PURE FINITE-DIFFERENCE OPTION, MIXELM=0) 
 = 0.1242    (WHEN MIN. R.F.=1)  AT K=   3, I=   2, J=  30
>>>>>>> Stashed changes


 TOTAL NUMBER OF POINT SOURCES/SINKS PRESENT IN THE FLOW MODEL =   240

 MAXIMUM STEPSIZE WHICH MEETS STABILITY CRITERION OF THE SINK & SOURCE TERM
 = 0.1000E+31(WHEN MIN. R.F.=1)  AT K=   0, I=   0, J=   0

 MAXIMUM STEPSIZE WHICH MEETS STABILITY CRITERION OF THE DISPERSION TERM
<<<<<<< Updated upstream
 = 0.6147E-02(WHEN MIN. R.F.=1)  AT K=   3, I=   2, J=  31
     1 CALLS TO GCG PACKAGE FOR TRANSPORT TIME STEP   5 IN FLOW TIME STEP   2 STRESS PERIOD   2
    24 TOTAL ITERATIONS
0WARNING: NUMERICAL OSCILLATION ENCOUNTERED
 ONE OR MORE CELL CONCENTRATIONS LESS THAN CRHOREF
 SMALLEST DENSITY =  0.100E+04
 AT CELL (I,J,K) = (   2,  67,  16)
=======
 = 0.6656E-02(WHEN MIN. R.F.=1)  AT K=   3, I=   2, J=  30
     1 CALLS TO GCG PACKAGE FOR TRANSPORT TIME STEP   6 IN FLOW TIME STEP   2 STRESS PERIOD   2
    25 TOTAL ITERATIONS
0WARNING: NUMERICAL OSCILLATION ENCOUNTERED
 ONE OR MORE CELL CONCENTRATIONS LESS THAN CRHOREF
 SMALLEST DENSITY =  0.100E+04
 AT CELL (I,J,K) = (   1,  62,  20)
>>>>>>> Stashed changes

 
 SOLVING FOR HEAD 
 FLOW MODEL IS TRANSIENT
 FLOW MODEL CONTAINS CONSTANT-HEAD CELLS


 MAXIMUM STEPSIZE DURING WHICH ANY PARTICLE CANNOT MOVE MORE THAN ONE CELL
<<<<<<< Updated upstream
 = 0.1626    (WHEN MIN. R.F.=1)  AT K=   3, I=   2, J=  29

 MAXIMUM STEPSIZE WHICH MEETS STABILITY CRITERION OF THE ADVECTION TERM
 (FOR PURE FINITE-DIFFERENCE OPTION, MIXELM=0) 
 = 0.1127    (WHEN MIN. R.F.=1)  AT K=   3, I=   2, J=  28
=======
 = 0.1862    (WHEN MIN. R.F.=1)  AT K=   3, I=   2, J=  31

 MAXIMUM STEPSIZE WHICH MEETS STABILITY CRITERION OF THE ADVECTION TERM
 (FOR PURE FINITE-DIFFERENCE OPTION, MIXELM=0) 
 = 0.1243    (WHEN MIN. R.F.=1)  AT K=   3, I=   2, J=  30
>>>>>>> Stashed changes


 TOTAL NUMBER OF POINT SOURCES/SINKS PRESENT IN THE FLOW MODEL =   240

 MAXIMUM STEPSIZE WHICH MEETS STABILITY CRITERION OF THE SINK & SOURCE TERM
 = 0.1000E+31(WHEN MIN. R.F.=1)  AT K=   0, I=   0, J=   0

 MAXIMUM STEPSIZE WHICH MEETS STABILITY CRITERION OF THE DISPERSION TERM
<<<<<<< Updated upstream
 = 0.6154E-02(WHEN MIN. R.F.=1)  AT K=   3, I=   2, J=  31
     1 CALLS TO GCG PACKAGE FOR TRANSPORT TIME STEP   6 IN FLOW TIME STEP   2 STRESS PERIOD   2
    24 TOTAL ITERATIONS
0WARNING: NUMERICAL OSCILLATION ENCOUNTERED
 ONE OR MORE CELL CONCENTRATIONS LESS THAN CRHOREF
 SMALLEST DENSITY =  0.100E+04
 AT CELL (I,J,K) = (   2,  67,  16)
=======
 = 0.6662E-02(WHEN MIN. R.F.=1)  AT K=   3, I=   2, J=  30
     1 CALLS TO GCG PACKAGE FOR TRANSPORT TIME STEP   7 IN FLOW TIME STEP   2 STRESS PERIOD   2
    25 TOTAL ITERATIONS
0WARNING: NUMERICAL OSCILLATION ENCOUNTERED
 ONE OR MORE CELL CONCENTRATIONS LESS THAN CRHOREF
 SMALLEST DENSITY =  0.100E+04
 AT CELL (I,J,K) = (   1,  62,  20)
>>>>>>> Stashed changes

 
 SOLVING FOR HEAD 
 FLOW MODEL IS TRANSIENT
 FLOW MODEL CONTAINS CONSTANT-HEAD CELLS


 MAXIMUM STEPSIZE DURING WHICH ANY PARTICLE CANNOT MOVE MORE THAN ONE CELL
<<<<<<< Updated upstream
 = 0.1627    (WHEN MIN. R.F.=1)  AT K=   3, I=   2, J=  29

 MAXIMUM STEPSIZE WHICH MEETS STABILITY CRITERION OF THE ADVECTION TERM
 (FOR PURE FINITE-DIFFERENCE OPTION, MIXELM=0) 
 = 0.1128    (WHEN MIN. R.F.=1)  AT K=   3, I=   2, J=  28
=======
 = 0.1863    (WHEN MIN. R.F.=1)  AT K=   3, I=   2, J=  31

 MAXIMUM STEPSIZE WHICH MEETS STABILITY CRITERION OF THE ADVECTION TERM
 (FOR PURE FINITE-DIFFERENCE OPTION, MIXELM=0) 
 = 0.1244    (WHEN MIN. R.F.=1)  AT K=   3, I=   2, J=  30
>>>>>>> Stashed changes


 TOTAL NUMBER OF POINT SOURCES/SINKS PRESENT IN THE FLOW MODEL =   240

 MAXIMUM STEPSIZE WHICH MEETS STABILITY CRITERION OF THE SINK & SOURCE TERM
 = 0.1000E+31(WHEN MIN. R.F.=1)  AT K=   0, I=   0, J=   0

 MAXIMUM STEPSIZE WHICH MEETS STABILITY CRITERION OF THE DISPERSION TERM
<<<<<<< Updated upstream
 = 0.6160E-02(WHEN MIN. R.F.=1)  AT K=   3, I=   2, J=  31
     1 CALLS TO GCG PACKAGE FOR TRANSPORT TIME STEP   7 IN FLOW TIME STEP   2 STRESS PERIOD   2
    24 TOTAL ITERATIONS
0WARNING: NUMERICAL OSCILLATION ENCOUNTERED
 ONE OR MORE CELL CONCENTRATIONS LESS THAN CRHOREF
 SMALLEST DENSITY =  0.100E+04
 AT CELL (I,J,K) = (   2,  67,  16)
=======
 = 0.6668E-02(WHEN MIN. R.F.=1)  AT K=   3, I=   2, J=  30
     1 CALLS TO GCG PACKAGE FOR TRANSPORT TIME STEP   8 IN FLOW TIME STEP   2 STRESS PERIOD   2
    13 TOTAL ITERATIONS
  MAXIMUM CONCENTRATION CHANGES FOR EACH ITERATION:
  MAX. CHANGE LAYER,ROW,COL MAX. CHANGE LAYER,ROW,COL MAX. CHANGE LAYER,ROW,COL MAX. CHANGE LAYER,ROW,COL MAX. CHANGE LAYER,ROW,COL
 ------------------------------------------------------------------------------------------------------------------------------------
   0.4237E-02 (  3,  1, 51)  0.1314E-02 (  4,  3, 43)  0.5836E-03 (  4,  2, 39)  0.3176E-03 (  3,  2, 37)  0.1067E-03 (  4,  2, 37)
   0.3791E-04 (  3,  2, 37)  0.1059E-04 (  4,  2, 37)  0.4461E-05 (  3,  2, 43)  0.1590E-05 (  4,  2, 38)  0.6071E-06 (  4,  2, 39)
   0.2267E-06 (  5,  2, 39)  0.1048E-06 (  4,  2, 38)  0.3561E-07 (  3,  2, 38)
 UBDSV1 SAVING "         STORAGE" ON UNIT  53 AT TIME STEP  2, STRESS PERIOD   2
 UBDSV2 SAVING "   CONSTANT HEAD" ON UNIT  53 AT TIME STEP  2, STRESS PERIOD   2
 UBDSV1 SAVING "FLOW RIGHT FACE " ON UNIT  53 AT TIME STEP  2, STRESS PERIOD   2
 UBDSV1 SAVING "FLOW FRONT FACE " ON UNIT  53 AT TIME STEP  2, STRESS PERIOD   2
 UBDSV1 SAVING "FLOW LOWER FACE " ON UNIT  53 AT TIME STEP  2, STRESS PERIOD   2
 UBDSV1 SAVING "            DCDT" ON UNIT  53 AT TIME STEP  2, STRESS PERIOD   2
0WARNING: NUMERICAL OSCILLATION ENCOUNTERED
 ONE OR MORE CELL CONCENTRATIONS LESS THAN CRHOREF
 SMALLEST DENSITY =  0.100E+04
 AT CELL (I,J,K) = (   1,  62,  20)


 HEAD WILL BE SAVED ON UNIT   51 AT END OF TIME STEP   2, STRESS PERIOD    2


                                          ================================================
                                                         FROM TIME =   3.0000     TO    4.0000    
>>>>>>> Stashed changes

 
 SOLVING FOR HEAD 
 FLOW MODEL IS TRANSIENT
 FLOW MODEL CONTAINS CONSTANT-HEAD CELLS


 MAXIMUM STEPSIZE DURING WHICH ANY PARTICLE CANNOT MOVE MORE THAN ONE CELL
<<<<<<< Updated upstream
 = 0.1628    (WHEN MIN. R.F.=1)  AT K=   3, I=   2, J=  29

 MAXIMUM STEPSIZE WHICH MEETS STABILITY CRITERION OF THE ADVECTION TERM
 (FOR PURE FINITE-DIFFERENCE OPTION, MIXELM=0) 
 = 0.1129    (WHEN MIN. R.F.=1)  AT K=   3, I=   2, J=  28
=======
 = 0.1863    (WHEN MIN. R.F.=1)  AT K=   3, I=   2, J=  31

 MAXIMUM STEPSIZE WHICH MEETS STABILITY CRITERION OF THE ADVECTION TERM
 (FOR PURE FINITE-DIFFERENCE OPTION, MIXELM=0) 
 = 0.1244    (WHEN MIN. R.F.=1)  AT K=   3, I=   2, J=  30
>>>>>>> Stashed changes


 TOTAL NUMBER OF POINT SOURCES/SINKS PRESENT IN THE FLOW MODEL =   240

 MAXIMUM STEPSIZE WHICH MEETS STABILITY CRITERION OF THE SINK & SOURCE TERM
 = 0.1000E+31(WHEN MIN. R.F.=1)  AT K=   0, I=   0, J=   0

 MAXIMUM STEPSIZE WHICH MEETS STABILITY CRITERION OF THE DISPERSION TERM
<<<<<<< Updated upstream
 = 0.6165E-02(WHEN MIN. R.F.=1)  AT K=   3, I=   2, J=  31
     1 CALLS TO GCG PACKAGE FOR TRANSPORT TIME STEP   8 IN FLOW TIME STEP   2 STRESS PERIOD   2
    24 TOTAL ITERATIONS
0WARNING: NUMERICAL OSCILLATION ENCOUNTERED
 ONE OR MORE CELL CONCENTRATIONS LESS THAN CRHOREF
 SMALLEST DENSITY =  0.100E+04
 AT CELL (I,J,K) = (   2,  67,  16)
=======
 = 0.6669E-02(WHEN MIN. R.F.=1)  AT K=   3, I=   2, J=  30


     1 CALLS TO GCG PACKAGE FOR TRANSPORT TIME STEP   1 IN FLOW TIME STEP   3 STRESS PERIOD   2
    25 TOTAL ITERATIONS

 OUTPUT CONTROL FOR STRESS PERIOD    2   TIME STEP   3
    SAVE HEAD FOR ALL LAYERS
    SAVE BUDGET
0WARNING: NUMERICAL OSCILLATION ENCOUNTERED
 ONE OR MORE CELL CONCENTRATIONS LESS THAN CRHOREF
 SMALLEST DENSITY =  0.100E+04
 AT CELL (I,J,K) = (   1,  62,  20)
>>>>>>> Stashed changes

 
 SOLVING FOR HEAD 
 FLOW MODEL IS TRANSIENT
 FLOW MODEL CONTAINS CONSTANT-HEAD CELLS


 MAXIMUM STEPSIZE DURING WHICH ANY PARTICLE CANNOT MOVE MORE THAN ONE CELL
<<<<<<< Updated upstream
 = 0.1629    (WHEN MIN. R.F.=1)  AT K=   3, I=   2, J=  29

 MAXIMUM STEPSIZE WHICH MEETS STABILITY CRITERION OF THE ADVECTION TERM
 (FOR PURE FINITE-DIFFERENCE OPTION, MIXELM=0) 
 = 0.1130    (WHEN MIN. R.F.=1)  AT K=   3, I=   2, J=  28
=======
 = 0.1865    (WHEN MIN. R.F.=1)  AT K=   3, I=   2, J=  31

 MAXIMUM STEPSIZE WHICH MEETS STABILITY CRITERION OF THE ADVECTION TERM
 (FOR PURE FINITE-DIFFERENCE OPTION, MIXELM=0) 
 = 0.1245    (WHEN MIN. R.F.=1)  AT K=   3, I=   2, J=  30
>>>>>>> Stashed changes


 TOTAL NUMBER OF POINT SOURCES/SINKS PRESENT IN THE FLOW MODEL =   240

 MAXIMUM STEPSIZE WHICH MEETS STABILITY CRITERION OF THE SINK & SOURCE TERM
 = 0.1000E+31(WHEN MIN. R.F.=1)  AT K=   0, I=   0, J=   0

 MAXIMUM STEPSIZE WHICH MEETS STABILITY CRITERION OF THE DISPERSION TERM
<<<<<<< Updated upstream
 = 0.6170E-02(WHEN MIN. R.F.=1)  AT K=   3, I=   2, J=  31
     1 CALLS TO GCG PACKAGE FOR TRANSPORT TIME STEP   9 IN FLOW TIME STEP   2 STRESS PERIOD   2
    13 TOTAL ITERATIONS
  MAXIMUM CONCENTRATION CHANGES FOR EACH ITERATION:
  MAX. CHANGE LAYER,ROW,COL MAX. CHANGE LAYER,ROW,COL MAX. CHANGE LAYER,ROW,COL MAX. CHANGE LAYER,ROW,COL MAX. CHANGE LAYER,ROW,COL
 ------------------------------------------------------------------------------------------------------------------------------------
   0.4947E-02 (  4,  3, 45)  0.1230E-02 (  5,  2, 46)  0.5094E-03 (  4,  2, 42)  0.2006E-03 (  3,  2, 33)  0.8587E-04 (  4,  3, 31)
   0.5068E-04 (  3,  3, 31)  0.1920E-04 (  4,  3, 31)  0.5536E-05 (  4,  3, 32)  0.2168E-05 (  4,  3, 29)  0.1005E-05 (  3,  2, 30)
   0.4156E-06 (  3,  3, 30)  0.1430E-06 (  4,  3, 30)  0.5694E-07 (  4,  2, 33)
0WARNING: NUMERICAL OSCILLATION ENCOUNTERED
 ONE OR MORE CELL CONCENTRATIONS LESS THAN CRHOREF
 SMALLEST DENSITY =  0.100E+04
 AT CELL (I,J,K) = (   2,  67,  16)



                                          ================================================
                                                         FROM TIME =   3.0000     TO    4.0000    
=======
 = 0.6674E-02(WHEN MIN. R.F.=1)  AT K=   3, I=   2, J=  30
     1 CALLS TO GCG PACKAGE FOR TRANSPORT TIME STEP   2 IN FLOW TIME STEP   3 STRESS PERIOD   2
    24 TOTAL ITERATIONS
0WARNING: NUMERICAL OSCILLATION ENCOUNTERED
 ONE OR MORE CELL CONCENTRATIONS LESS THAN CRHOREF
 SMALLEST DENSITY =  0.100E+04
 AT CELL (I,J,K) = (   1,  62,  20)
>>>>>>> Stashed changes

 
 SOLVING FOR HEAD 
 FLOW MODEL IS TRANSIENT
 FLOW MODEL CONTAINS CONSTANT-HEAD CELLS


 MAXIMUM STEPSIZE DURING WHICH ANY PARTICLE CANNOT MOVE MORE THAN ONE CELL
<<<<<<< Updated upstream
 = 0.1629    (WHEN MIN. R.F.=1)  AT K=   3, I=   2, J=  29

 MAXIMUM STEPSIZE WHICH MEETS STABILITY CRITERION OF THE ADVECTION TERM
 (FOR PURE FINITE-DIFFERENCE OPTION, MIXELM=0) 
 = 0.1130    (WHEN MIN. R.F.=1)  AT K=   3, I=   2, J=  28
=======
 = 0.1865    (WHEN MIN. R.F.=1)  AT K=   3, I=   2, J=  31

 MAXIMUM STEPSIZE WHICH MEETS STABILITY CRITERION OF THE ADVECTION TERM
 (FOR PURE FINITE-DIFFERENCE OPTION, MIXELM=0) 
 = 0.1246    (WHEN MIN. R.F.=1)  AT K=   3, I=   2, J=  30
>>>>>>> Stashed changes


 TOTAL NUMBER OF POINT SOURCES/SINKS PRESENT IN THE FLOW MODEL =   240

 MAXIMUM STEPSIZE WHICH MEETS STABILITY CRITERION OF THE SINK & SOURCE TERM
 = 0.1000E+31(WHEN MIN. R.F.=1)  AT K=   0, I=   0, J=   0

 MAXIMUM STEPSIZE WHICH MEETS STABILITY CRITERION OF THE DISPERSION TERM
<<<<<<< Updated upstream
 = 0.6171E-02(WHEN MIN. R.F.=1)  AT K=   3, I=   2, J=  31


     1 CALLS TO GCG PACKAGE FOR TRANSPORT TIME STEP   1 IN FLOW TIME STEP   3 STRESS PERIOD   2
    24 TOTAL ITERATIONS

 NO OUTPUT CONTROL FOR STRESS PERIOD    2   TIME STEP   3
0WARNING: NUMERICAL OSCILLATION ENCOUNTERED
 ONE OR MORE CELL CONCENTRATIONS LESS THAN CRHOREF
 SMALLEST DENSITY =  0.100E+04
 AT CELL (I,J,K) = (   2,  67,  16)
=======
 = 0.6678E-02(WHEN MIN. R.F.=1)  AT K=   3, I=   2, J=  30
     1 CALLS TO GCG PACKAGE FOR TRANSPORT TIME STEP   3 IN FLOW TIME STEP   3 STRESS PERIOD   2
    25 TOTAL ITERATIONS
0WARNING: NUMERICAL OSCILLATION ENCOUNTERED
 ONE OR MORE CELL CONCENTRATIONS LESS THAN CRHOREF
 SMALLEST DENSITY =  0.100E+04
 AT CELL (I,J,K) = (   1,  62,  20)
>>>>>>> Stashed changes

 
 SOLVING FOR HEAD 
 FLOW MODEL IS TRANSIENT
 FLOW MODEL CONTAINS CONSTANT-HEAD CELLS


 MAXIMUM STEPSIZE DURING WHICH ANY PARTICLE CANNOT MOVE MORE THAN ONE CELL
<<<<<<< Updated upstream
 = 0.1630    (WHEN MIN. R.F.=1)  AT K=   3, I=   2, J=  29

 MAXIMUM STEPSIZE WHICH MEETS STABILITY CRITERION OF THE ADVECTION TERM
 (FOR PURE FINITE-DIFFERENCE OPTION, MIXELM=0) 
 = 0.1130    (WHEN MIN. R.F.=1)  AT K=   3, I=   2, J=  28
=======
 = 0.1866    (WHEN MIN. R.F.=1)  AT K=   3, I=   2, J=  31

 MAXIMUM STEPSIZE WHICH MEETS STABILITY CRITERION OF THE ADVECTION TERM
 (FOR PURE FINITE-DIFFERENCE OPTION, MIXELM=0) 
 = 0.1246    (WHEN MIN. R.F.=1)  AT K=   3, I=   2, J=  30
>>>>>>> Stashed changes


 TOTAL NUMBER OF POINT SOURCES/SINKS PRESENT IN THE FLOW MODEL =   240

 MAXIMUM STEPSIZE WHICH MEETS STABILITY CRITERION OF THE SINK & SOURCE TERM
 = 0.1000E+31(WHEN MIN. R.F.=1)  AT K=   0, I=   0, J=   0

 MAXIMUM STEPSIZE WHICH MEETS STABILITY CRITERION OF THE DISPERSION TERM
<<<<<<< Updated upstream
 = 0.6174E-02(WHEN MIN. R.F.=1)  AT K=   3, I=   2, J=  31
     1 CALLS TO GCG PACKAGE FOR TRANSPORT TIME STEP   2 IN FLOW TIME STEP   3 STRESS PERIOD   2
    23 TOTAL ITERATIONS
0WARNING: NUMERICAL OSCILLATION ENCOUNTERED
 ONE OR MORE CELL CONCENTRATIONS LESS THAN CRHOREF
 SMALLEST DENSITY =  0.100E+04
 AT CELL (I,J,K) = (   2,  47,  22)
=======
 = 0.6682E-02(WHEN MIN. R.F.=1)  AT K=   3, I=   2, J=  30
     1 CALLS TO GCG PACKAGE FOR TRANSPORT TIME STEP   4 IN FLOW TIME STEP   3 STRESS PERIOD   2
    25 TOTAL ITERATIONS
0WARNING: NUMERICAL OSCILLATION ENCOUNTERED
 ONE OR MORE CELL CONCENTRATIONS LESS THAN CRHOREF
 SMALLEST DENSITY =  0.100E+04
 AT CELL (I,J,K) = (   1,  62,  20)
>>>>>>> Stashed changes

 
 SOLVING FOR HEAD 
 FLOW MODEL IS TRANSIENT
 FLOW MODEL CONTAINS CONSTANT-HEAD CELLS


 MAXIMUM STEPSIZE DURING WHICH ANY PARTICLE CANNOT MOVE MORE THAN ONE CELL
<<<<<<< Updated upstream
 = 0.1631    (WHEN MIN. R.F.=1)  AT K=   3, I=   2, J=  29

 MAXIMUM STEPSIZE WHICH MEETS STABILITY CRITERION OF THE ADVECTION TERM
 (FOR PURE FINITE-DIFFERENCE OPTION, MIXELM=0) 
 = 0.1131    (WHEN MIN. R.F.=1)  AT K=   3, I=   2, J=  28
=======
 = 0.1867    (WHEN MIN. R.F.=1)  AT K=   3, I=   2, J=  31

 MAXIMUM STEPSIZE WHICH MEETS STABILITY CRITERION OF THE ADVECTION TERM
 (FOR PURE FINITE-DIFFERENCE OPTION, MIXELM=0) 
 = 0.1247    (WHEN MIN. R.F.=1)  AT K=   3, I=   2, J=  30
>>>>>>> Stashed changes


 TOTAL NUMBER OF POINT SOURCES/SINKS PRESENT IN THE FLOW MODEL =   240

 MAXIMUM STEPSIZE WHICH MEETS STABILITY CRITERION OF THE SINK & SOURCE TERM
 = 0.1000E+31(WHEN MIN. R.F.=1)  AT K=   0, I=   0, J=   0

 MAXIMUM STEPSIZE WHICH MEETS STABILITY CRITERION OF THE DISPERSION TERM
<<<<<<< Updated upstream
 = 0.6178E-02(WHEN MIN. R.F.=1)  AT K=   3, I=   2, J=  31
     1 CALLS TO GCG PACKAGE FOR TRANSPORT TIME STEP   3 IN FLOW TIME STEP   3 STRESS PERIOD   2
=======
 = 0.6685E-02(WHEN MIN. R.F.=1)  AT K=   3, I=   2, J=  30
     1 CALLS TO GCG PACKAGE FOR TRANSPORT TIME STEP   5 IN FLOW TIME STEP   3 STRESS PERIOD   2
>>>>>>> Stashed changes
    23 TOTAL ITERATIONS
0WARNING: NUMERICAL OSCILLATION ENCOUNTERED
 ONE OR MORE CELL CONCENTRATIONS LESS THAN CRHOREF
 SMALLEST DENSITY =  0.100E+04
<<<<<<< Updated upstream
 AT CELL (I,J,K) = (   2,  47,  22)
=======
 AT CELL (I,J,K) = (   1,  62,  20)
>>>>>>> Stashed changes

 
 SOLVING FOR HEAD 
 FLOW MODEL IS TRANSIENT
 FLOW MODEL CONTAINS CONSTANT-HEAD CELLS


 MAXIMUM STEPSIZE DURING WHICH ANY PARTICLE CANNOT MOVE MORE THAN ONE CELL
<<<<<<< Updated upstream
 = 0.1631    (WHEN MIN. R.F.=1)  AT K=   3, I=   2, J=  29

 MAXIMUM STEPSIZE WHICH MEETS STABILITY CRITERION OF THE ADVECTION TERM
 (FOR PURE FINITE-DIFFERENCE OPTION, MIXELM=0) 
 = 0.1131    (WHEN MIN. R.F.=1)  AT K=   3, I=   2, J=  28
=======
 = 0.1868    (WHEN MIN. R.F.=1)  AT K=   3, I=   2, J=  31

 MAXIMUM STEPSIZE WHICH MEETS STABILITY CRITERION OF THE ADVECTION TERM
 (FOR PURE FINITE-DIFFERENCE OPTION, MIXELM=0) 
 = 0.1247    (WHEN MIN. R.F.=1)  AT K=   3, I=   2, J=  30
>>>>>>> Stashed changes


 TOTAL NUMBER OF POINT SOURCES/SINKS PRESENT IN THE FLOW MODEL =   240

 MAXIMUM STEPSIZE WHICH MEETS STABILITY CRITERION OF THE SINK & SOURCE TERM
 = 0.1000E+31(WHEN MIN. R.F.=1)  AT K=   0, I=   0, J=   0

 MAXIMUM STEPSIZE WHICH MEETS STABILITY CRITERION OF THE DISPERSION TERM
<<<<<<< Updated upstream
 = 0.6181E-02(WHEN MIN. R.F.=1)  AT K=   3, I=   2, J=  31
     1 CALLS TO GCG PACKAGE FOR TRANSPORT TIME STEP   4 IN FLOW TIME STEP   3 STRESS PERIOD   2
=======
 = 0.6688E-02(WHEN MIN. R.F.=1)  AT K=   3, I=   2, J=  30
     1 CALLS TO GCG PACKAGE FOR TRANSPORT TIME STEP   6 IN FLOW TIME STEP   3 STRESS PERIOD   2
>>>>>>> Stashed changes
    23 TOTAL ITERATIONS
0WARNING: NUMERICAL OSCILLATION ENCOUNTERED
 ONE OR MORE CELL CONCENTRATIONS LESS THAN CRHOREF
 SMALLEST DENSITY =  0.100E+04
<<<<<<< Updated upstream
 AT CELL (I,J,K) = (   2,  47,  22)
=======
 AT CELL (I,J,K) = (   1,  62,  20)
>>>>>>> Stashed changes

 
 SOLVING FOR HEAD 
 FLOW MODEL IS TRANSIENT
 FLOW MODEL CONTAINS CONSTANT-HEAD CELLS


 MAXIMUM STEPSIZE DURING WHICH ANY PARTICLE CANNOT MOVE MORE THAN ONE CELL
<<<<<<< Updated upstream
 = 0.1632    (WHEN MIN. R.F.=1)  AT K=   3, I=   2, J=  29

 MAXIMUM STEPSIZE WHICH MEETS STABILITY CRITERION OF THE ADVECTION TERM
 (FOR PURE FINITE-DIFFERENCE OPTION, MIXELM=0) 
 = 0.1132    (WHEN MIN. R.F.=1)  AT K=   3, I=   2, J=  28
=======
 = 0.1868    (WHEN MIN. R.F.=1)  AT K=   3, I=   2, J=  31

 MAXIMUM STEPSIZE WHICH MEETS STABILITY CRITERION OF THE ADVECTION TERM
 (FOR PURE FINITE-DIFFERENCE OPTION, MIXELM=0) 
 = 0.1247    (WHEN MIN. R.F.=1)  AT K=   3, I=   2, J=  30
>>>>>>> Stashed changes


 TOTAL NUMBER OF POINT SOURCES/SINKS PRESENT IN THE FLOW MODEL =   240

 MAXIMUM STEPSIZE WHICH MEETS STABILITY CRITERION OF THE SINK & SOURCE TERM
 = 0.1000E+31(WHEN MIN. R.F.=1)  AT K=   0, I=   0, J=   0

 MAXIMUM STEPSIZE WHICH MEETS STABILITY CRITERION OF THE DISPERSION TERM
<<<<<<< Updated upstream
 = 0.6184E-02(WHEN MIN. R.F.=1)  AT K=   3, I=   2, J=  31
     1 CALLS TO GCG PACKAGE FOR TRANSPORT TIME STEP   5 IN FLOW TIME STEP   3 STRESS PERIOD   2
=======
 = 0.6690E-02(WHEN MIN. R.F.=1)  AT K=   3, I=   2, J=  30
     1 CALLS TO GCG PACKAGE FOR TRANSPORT TIME STEP   7 IN FLOW TIME STEP   3 STRESS PERIOD   2
>>>>>>> Stashed changes
    23 TOTAL ITERATIONS
0WARNING: NUMERICAL OSCILLATION ENCOUNTERED
 ONE OR MORE CELL CONCENTRATIONS LESS THAN CRHOREF
 SMALLEST DENSITY =  0.100E+04
<<<<<<< Updated upstream
 AT CELL (I,J,K) = (   2,  47,  22)
=======
 AT CELL (I,J,K) = (   1,  62,  20)
>>>>>>> Stashed changes

 
 SOLVING FOR HEAD 
 FLOW MODEL IS TRANSIENT
 FLOW MODEL CONTAINS CONSTANT-HEAD CELLS


 MAXIMUM STEPSIZE DURING WHICH ANY PARTICLE CANNOT MOVE MORE THAN ONE CELL
<<<<<<< Updated upstream
 = 0.1632    (WHEN MIN. R.F.=1)  AT K=   3, I=   2, J=  29

 MAXIMUM STEPSIZE WHICH MEETS STABILITY CRITERION OF THE ADVECTION TERM
 (FOR PURE FINITE-DIFFERENCE OPTION, MIXELM=0) 
 = 0.1132    (WHEN MIN. R.F.=1)  AT K=   3, I=   2, J=  28
=======
 = 0.1869    (WHEN MIN. R.F.=1)  AT K=   3, I=   2, J=  31

 MAXIMUM STEPSIZE WHICH MEETS STABILITY CRITERION OF THE ADVECTION TERM
 (FOR PURE FINITE-DIFFERENCE OPTION, MIXELM=0) 
 = 0.1248    (WHEN MIN. R.F.=1)  AT K=   3, I=   2, J=  30
>>>>>>> Stashed changes


 TOTAL NUMBER OF POINT SOURCES/SINKS PRESENT IN THE FLOW MODEL =   240

 MAXIMUM STEPSIZE WHICH MEETS STABILITY CRITERION OF THE SINK & SOURCE TERM
 = 0.1000E+31(WHEN MIN. R.F.=1)  AT K=   0, I=   0, J=   0

 MAXIMUM STEPSIZE WHICH MEETS STABILITY CRITERION OF THE DISPERSION TERM
<<<<<<< Updated upstream
 = 0.6186E-02(WHEN MIN. R.F.=1)  AT K=   3, I=   2, J=  31
     1 CALLS TO GCG PACKAGE FOR TRANSPORT TIME STEP   6 IN FLOW TIME STEP   3 STRESS PERIOD   2
    23 TOTAL ITERATIONS
0WARNING: NUMERICAL OSCILLATION ENCOUNTERED
 ONE OR MORE CELL CONCENTRATIONS LESS THAN CRHOREF
 SMALLEST DENSITY =  0.100E+04
 AT CELL (I,J,K) = (   2,  47,  22)
=======
 = 0.6693E-02(WHEN MIN. R.F.=1)  AT K=   3, I=   2, J=  30
     1 CALLS TO GCG PACKAGE FOR TRANSPORT TIME STEP   8 IN FLOW TIME STEP   3 STRESS PERIOD   2
    10 TOTAL ITERATIONS
  MAXIMUM CONCENTRATION CHANGES FOR EACH ITERATION:
  MAX. CHANGE LAYER,ROW,COL MAX. CHANGE LAYER,ROW,COL MAX. CHANGE LAYER,ROW,COL MAX. CHANGE LAYER,ROW,COL MAX. CHANGE LAYER,ROW,COL
 ------------------------------------------------------------------------------------------------------------------------------------
   0.2247E-02 (  7,  2, 48)  0.5574E-03 (  3,  2, 44)  0.2218E-03 (  4,  2, 39)  0.1027E-03 (  3,  2, 37)  0.2951E-04 (  4,  2, 37)
   0.9271E-05 (  3,  2, 37)  0.2421E-05 (  3,  1, 32)  0.8883E-06 (  3,  2, 38)  0.2924E-06 (  4,  2, 38)  0.9576E-07 (  4,  2, 39)
 UBDSV1 SAVING "         STORAGE" ON UNIT  53 AT TIME STEP  3, STRESS PERIOD   2
 UBDSV2 SAVING "   CONSTANT HEAD" ON UNIT  53 AT TIME STEP  3, STRESS PERIOD   2
 UBDSV1 SAVING "FLOW RIGHT FACE " ON UNIT  53 AT TIME STEP  3, STRESS PERIOD   2
 UBDSV1 SAVING "FLOW FRONT FACE " ON UNIT  53 AT TIME STEP  3, STRESS PERIOD   2
 UBDSV1 SAVING "FLOW LOWER FACE " ON UNIT  53 AT TIME STEP  3, STRESS PERIOD   2
 UBDSV1 SAVING "            DCDT" ON UNIT  53 AT TIME STEP  3, STRESS PERIOD   2
0WARNING: NUMERICAL OSCILLATION ENCOUNTERED
 ONE OR MORE CELL CONCENTRATIONS LESS THAN CRHOREF
 SMALLEST DENSITY =  0.100E+04
 AT CELL (I,J,K) = (   1,  62,  20)


 HEAD WILL BE SAVED ON UNIT   51 AT END OF TIME STEP   3, STRESS PERIOD    2


                                          ================================================
                                                         FROM TIME =   4.0000     TO    5.0000    
>>>>>>> Stashed changes

 
 SOLVING FOR HEAD 
 FLOW MODEL IS TRANSIENT
 FLOW MODEL CONTAINS CONSTANT-HEAD CELLS


 MAXIMUM STEPSIZE DURING WHICH ANY PARTICLE CANNOT MOVE MORE THAN ONE CELL
<<<<<<< Updated upstream
 = 0.1633    (WHEN MIN. R.F.=1)  AT K=   3, I=   2, J=  29

 MAXIMUM STEPSIZE WHICH MEETS STABILITY CRITERION OF THE ADVECTION TERM
 (FOR PURE FINITE-DIFFERENCE OPTION, MIXELM=0) 
 = 0.1132    (WHEN MIN. R.F.=1)  AT K=   3, I=   2, J=  28
=======
 = 0.1869    (WHEN MIN. R.F.=1)  AT K=   3, I=   2, J=  31

 MAXIMUM STEPSIZE WHICH MEETS STABILITY CRITERION OF THE ADVECTION TERM
 (FOR PURE FINITE-DIFFERENCE OPTION, MIXELM=0) 
 = 0.1248    (WHEN MIN. R.F.=1)  AT K=   3, I=   2, J=  30
>>>>>>> Stashed changes


 TOTAL NUMBER OF POINT SOURCES/SINKS PRESENT IN THE FLOW MODEL =   240

 MAXIMUM STEPSIZE WHICH MEETS STABILITY CRITERION OF THE SINK & SOURCE TERM
 = 0.1000E+31(WHEN MIN. R.F.=1)  AT K=   0, I=   0, J=   0

 MAXIMUM STEPSIZE WHICH MEETS STABILITY CRITERION OF THE DISPERSION TERM
<<<<<<< Updated upstream
 = 0.6188E-02(WHEN MIN. R.F.=1)  AT K=   3, I=   2, J=  31
     1 CALLS TO GCG PACKAGE FOR TRANSPORT TIME STEP   7 IN FLOW TIME STEP   3 STRESS PERIOD   2
    23 TOTAL ITERATIONS
0WARNING: NUMERICAL OSCILLATION ENCOUNTERED
 ONE OR MORE CELL CONCENTRATIONS LESS THAN CRHOREF
 SMALLEST DENSITY =  0.100E+04
 AT CELL (I,J,K) = (   2,  47,  22)
=======
 = 0.6693E-02(WHEN MIN. R.F.=1)  AT K=   3, I=   2, J=  30


     1 CALLS TO GCG PACKAGE FOR TRANSPORT TIME STEP   1 IN FLOW TIME STEP   4 STRESS PERIOD   2
    25 TOTAL ITERATIONS

 OUTPUT CONTROL FOR STRESS PERIOD    2   TIME STEP   4
    SAVE HEAD FOR ALL LAYERS
    SAVE BUDGET
0WARNING: NUMERICAL OSCILLATION ENCOUNTERED
 ONE OR MORE CELL CONCENTRATIONS LESS THAN CRHOREF
 SMALLEST DENSITY =  0.100E+04
 AT CELL (I,J,K) = (   1,  62,  20)
>>>>>>> Stashed changes

 
 SOLVING FOR HEAD 
 FLOW MODEL IS TRANSIENT
 FLOW MODEL CONTAINS CONSTANT-HEAD CELLS


 MAXIMUM STEPSIZE DURING WHICH ANY PARTICLE CANNOT MOVE MORE THAN ONE CELL
<<<<<<< Updated upstream
 = 0.1633    (WHEN MIN. R.F.=1)  AT K=   3, I=   2, J=  29

 MAXIMUM STEPSIZE WHICH MEETS STABILITY CRITERION OF THE ADVECTION TERM
 (FOR PURE FINITE-DIFFERENCE OPTION, MIXELM=0) 
 = 0.1133    (WHEN MIN. R.F.=1)  AT K=   3, I=   2, J=  28
=======
 = 0.1869    (WHEN MIN. R.F.=1)  AT K=   3, I=   2, J=  31

 MAXIMUM STEPSIZE WHICH MEETS STABILITY CRITERION OF THE ADVECTION TERM
 (FOR PURE FINITE-DIFFERENCE OPTION, MIXELM=0) 
 = 0.1248    (WHEN MIN. R.F.=1)  AT K=   3, I=   2, J=  30
>>>>>>> Stashed changes


 TOTAL NUMBER OF POINT SOURCES/SINKS PRESENT IN THE FLOW MODEL =   240

 MAXIMUM STEPSIZE WHICH MEETS STABILITY CRITERION OF THE SINK & SOURCE TERM
 = 0.1000E+31(WHEN MIN. R.F.=1)  AT K=   0, I=   0, J=   0

 MAXIMUM STEPSIZE WHICH MEETS STABILITY CRITERION OF THE DISPERSION TERM
<<<<<<< Updated upstream
 = 0.6190E-02(WHEN MIN. R.F.=1)  AT K=   3, I=   2, J=  31
     1 CALLS TO GCG PACKAGE FOR TRANSPORT TIME STEP   8 IN FLOW TIME STEP   3 STRESS PERIOD   2
    23 TOTAL ITERATIONS
0WARNING: NUMERICAL OSCILLATION ENCOUNTERED
 ONE OR MORE CELL CONCENTRATIONS LESS THAN CRHOREF
 SMALLEST DENSITY =  0.100E+04
 AT CELL (I,J,K) = (   2,  47,  22)
=======
 = 0.6695E-02(WHEN MIN. R.F.=1)  AT K=   3, I=   2, J=  30
     1 CALLS TO GCG PACKAGE FOR TRANSPORT TIME STEP   2 IN FLOW TIME STEP   4 STRESS PERIOD   2
    25 TOTAL ITERATIONS
0WARNING: NUMERICAL OSCILLATION ENCOUNTERED
 ONE OR MORE CELL CONCENTRATIONS LESS THAN CRHOREF
 SMALLEST DENSITY =  0.100E+04
 AT CELL (I,J,K) = (   1,  62,  20)
>>>>>>> Stashed changes

 
 SOLVING FOR HEAD 
 FLOW MODEL IS TRANSIENT
 FLOW MODEL CONTAINS CONSTANT-HEAD CELLS


 MAXIMUM STEPSIZE DURING WHICH ANY PARTICLE CANNOT MOVE MORE THAN ONE CELL
<<<<<<< Updated upstream
 = 0.1633    (WHEN MIN. R.F.=1)  AT K=   3, I=   2, J=  29

 MAXIMUM STEPSIZE WHICH MEETS STABILITY CRITERION OF THE ADVECTION TERM
 (FOR PURE FINITE-DIFFERENCE OPTION, MIXELM=0) 
 = 0.1133    (WHEN MIN. R.F.=1)  AT K=   3, I=   2, J=  28
=======
 = 0.1869    (WHEN MIN. R.F.=1)  AT K=   3, I=   2, J=  31

 MAXIMUM STEPSIZE WHICH MEETS STABILITY CRITERION OF THE ADVECTION TERM
 (FOR PURE FINITE-DIFFERENCE OPTION, MIXELM=0) 
 = 0.1248    (WHEN MIN. R.F.=1)  AT K=   3, I=   2, J=  30
>>>>>>> Stashed changes


 TOTAL NUMBER OF POINT SOURCES/SINKS PRESENT IN THE FLOW MODEL =   240

 MAXIMUM STEPSIZE WHICH MEETS STABILITY CRITERION OF THE SINK & SOURCE TERM
 = 0.1000E+31(WHEN MIN. R.F.=1)  AT K=   0, I=   0, J=   0

 MAXIMUM STEPSIZE WHICH MEETS STABILITY CRITERION OF THE DISPERSION TERM
<<<<<<< Updated upstream
 = 0.6192E-02(WHEN MIN. R.F.=1)  AT K=   3, I=   2, J=  31
     1 CALLS TO GCG PACKAGE FOR TRANSPORT TIME STEP   9 IN FLOW TIME STEP   3 STRESS PERIOD   2
    11 TOTAL ITERATIONS
  MAXIMUM CONCENTRATION CHANGES FOR EACH ITERATION:
  MAX. CHANGE LAYER,ROW,COL MAX. CHANGE LAYER,ROW,COL MAX. CHANGE LAYER,ROW,COL MAX. CHANGE LAYER,ROW,COL MAX. CHANGE LAYER,ROW,COL
 ------------------------------------------------------------------------------------------------------------------------------------
   0.2634E-02 (  7,  3, 46)  0.5844E-03 (  5,  2, 46)  0.2039E-03 (  4,  2, 42)  0.7628E-04 (  3,  2, 33)  0.3207E-04 (  4,  3, 31)
   0.1675E-04 (  3,  3, 31)  0.4792E-05 (  4,  3, 31)  0.1357E-05 (  3,  3, 29)  0.5484E-06 (  4,  3, 29)  0.2131E-06 (  3,  2, 30)
   0.6901E-07 (  3,  3, 30)
0WARNING: NUMERICAL OSCILLATION ENCOUNTERED
 ONE OR MORE CELL CONCENTRATIONS LESS THAN CRHOREF
 SMALLEST DENSITY =  0.100E+04
 AT CELL (I,J,K) = (   2,  47,  22)



                                          ================================================
                                                         FROM TIME =   4.0000     TO    5.0000    
=======
 = 0.6697E-02(WHEN MIN. R.F.=1)  AT K=   3, I=   2, J=  30
     1 CALLS TO GCG PACKAGE FOR TRANSPORT TIME STEP   3 IN FLOW TIME STEP   4 STRESS PERIOD   2
    24 TOTAL ITERATIONS
0WARNING: NUMERICAL OSCILLATION ENCOUNTERED
 ONE OR MORE CELL CONCENTRATIONS LESS THAN CRHOREF
 SMALLEST DENSITY =  0.100E+04
 AT CELL (I,J,K) = (   1,  62,  20)
>>>>>>> Stashed changes

 
 SOLVING FOR HEAD 
 FLOW MODEL IS TRANSIENT
 FLOW MODEL CONTAINS CONSTANT-HEAD CELLS


 MAXIMUM STEPSIZE DURING WHICH ANY PARTICLE CANNOT MOVE MORE THAN ONE CELL
<<<<<<< Updated upstream
 = 0.1634    (WHEN MIN. R.F.=1)  AT K=   3, I=   2, J=  29

 MAXIMUM STEPSIZE WHICH MEETS STABILITY CRITERION OF THE ADVECTION TERM
 (FOR PURE FINITE-DIFFERENCE OPTION, MIXELM=0) 
 = 0.1133    (WHEN MIN. R.F.=1)  AT K=   3, I=   2, J=  28
=======
 = 0.1870    (WHEN MIN. R.F.=1)  AT K=   3, I=   2, J=  31

 MAXIMUM STEPSIZE WHICH MEETS STABILITY CRITERION OF THE ADVECTION TERM
 (FOR PURE FINITE-DIFFERENCE OPTION, MIXELM=0) 
 = 0.1248    (WHEN MIN. R.F.=1)  AT K=   3, I=   2, J=  30
>>>>>>> Stashed changes


 TOTAL NUMBER OF POINT SOURCES/SINKS PRESENT IN THE FLOW MODEL =   240

 MAXIMUM STEPSIZE WHICH MEETS STABILITY CRITERION OF THE SINK & SOURCE TERM
 = 0.1000E+31(WHEN MIN. R.F.=1)  AT K=   0, I=   0, J=   0

 MAXIMUM STEPSIZE WHICH MEETS STABILITY CRITERION OF THE DISPERSION TERM
<<<<<<< Updated upstream
 = 0.6192E-02(WHEN MIN. R.F.=1)  AT K=   3, I=   2, J=  31


     1 CALLS TO GCG PACKAGE FOR TRANSPORT TIME STEP   1 IN FLOW TIME STEP   4 STRESS PERIOD   2
    23 TOTAL ITERATIONS

 NO OUTPUT CONTROL FOR STRESS PERIOD    2   TIME STEP   4
0WARNING: NUMERICAL OSCILLATION ENCOUNTERED
 ONE OR MORE CELL CONCENTRATIONS LESS THAN CRHOREF
 SMALLEST DENSITY =  0.100E+04
 AT CELL (I,J,K) = (   2,  47,  22)
=======
 = 0.6698E-02(WHEN MIN. R.F.=1)  AT K=   3, I=   2, J=  30
     1 CALLS TO GCG PACKAGE FOR TRANSPORT TIME STEP   4 IN FLOW TIME STEP   4 STRESS PERIOD   2
    24 TOTAL ITERATIONS
0WARNING: NUMERICAL OSCILLATION ENCOUNTERED
 ONE OR MORE CELL CONCENTRATIONS LESS THAN CRHOREF
 SMALLEST DENSITY =  0.100E+04
 AT CELL (I,J,K) = (   1,  62,  20)
>>>>>>> Stashed changes

 
 SOLVING FOR HEAD 
 FLOW MODEL IS TRANSIENT
 FLOW MODEL CONTAINS CONSTANT-HEAD CELLS


 MAXIMUM STEPSIZE DURING WHICH ANY PARTICLE CANNOT MOVE MORE THAN ONE CELL
<<<<<<< Updated upstream
 = 0.1634    (WHEN MIN. R.F.=1)  AT K=   3, I=   2, J=  29

 MAXIMUM STEPSIZE WHICH MEETS STABILITY CRITERION OF THE ADVECTION TERM
 (FOR PURE FINITE-DIFFERENCE OPTION, MIXELM=0) 
 = 0.1133    (WHEN MIN. R.F.=1)  AT K=   3, I=   2, J=  28
=======
 = 0.1870    (WHEN MIN. R.F.=1)  AT K=   3, I=   2, J=  31

 MAXIMUM STEPSIZE WHICH MEETS STABILITY CRITERION OF THE ADVECTION TERM
 (FOR PURE FINITE-DIFFERENCE OPTION, MIXELM=0) 
 = 0.1249    (WHEN MIN. R.F.=1)  AT K=   3, I=   2, J=  30
>>>>>>> Stashed changes


 TOTAL NUMBER OF POINT SOURCES/SINKS PRESENT IN THE FLOW MODEL =   240

 MAXIMUM STEPSIZE WHICH MEETS STABILITY CRITERION OF THE SINK & SOURCE TERM
 = 0.1000E+31(WHEN MIN. R.F.=1)  AT K=   0, I=   0, J=   0

 MAXIMUM STEPSIZE WHICH MEETS STABILITY CRITERION OF THE DISPERSION TERM
<<<<<<< Updated upstream
 = 0.6194E-02(WHEN MIN. R.F.=1)  AT K=   3, I=   2, J=  31
     1 CALLS TO GCG PACKAGE FOR TRANSPORT TIME STEP   2 IN FLOW TIME STEP   4 STRESS PERIOD   2
    23 TOTAL ITERATIONS
0WARNING: NUMERICAL OSCILLATION ENCOUNTERED
 ONE OR MORE CELL CONCENTRATIONS LESS THAN CRHOREF
 SMALLEST DENSITY =  0.100E+04
 AT CELL (I,J,K) = (   2,  47,  22)
=======
 = 0.6700E-02(WHEN MIN. R.F.=1)  AT K=   3, I=   2, J=  30
     1 CALLS TO GCG PACKAGE FOR TRANSPORT TIME STEP   5 IN FLOW TIME STEP   4 STRESS PERIOD   2
    22 TOTAL ITERATIONS
0WARNING: NUMERICAL OSCILLATION ENCOUNTERED
 ONE OR MORE CELL CONCENTRATIONS LESS THAN CRHOREF
 SMALLEST DENSITY =  0.100E+04
 AT CELL (I,J,K) = (   1,  62,  20)
>>>>>>> Stashed changes

 
 SOLVING FOR HEAD 
 FLOW MODEL IS TRANSIENT
 FLOW MODEL CONTAINS CONSTANT-HEAD CELLS


 MAXIMUM STEPSIZE DURING WHICH ANY PARTICLE CANNOT MOVE MORE THAN ONE CELL
<<<<<<< Updated upstream
 = 0.1634    (WHEN MIN. R.F.=1)  AT K=   3, I=   2, J=  29

 MAXIMUM STEPSIZE WHICH MEETS STABILITY CRITERION OF THE ADVECTION TERM
 (FOR PURE FINITE-DIFFERENCE OPTION, MIXELM=0) 
 = 0.1133    (WHEN MIN. R.F.=1)  AT K=   3, I=   2, J=  28
=======
 = 0.1870    (WHEN MIN. R.F.=1)  AT K=   3, I=   2, J=  31

 MAXIMUM STEPSIZE WHICH MEETS STABILITY CRITERION OF THE ADVECTION TERM
 (FOR PURE FINITE-DIFFERENCE OPTION, MIXELM=0) 
 = 0.1249    (WHEN MIN. R.F.=1)  AT K=   3, I=   2, J=  30
>>>>>>> Stashed changes


 TOTAL NUMBER OF POINT SOURCES/SINKS PRESENT IN THE FLOW MODEL =   240

 MAXIMUM STEPSIZE WHICH MEETS STABILITY CRITERION OF THE SINK & SOURCE TERM
 = 0.1000E+31(WHEN MIN. R.F.=1)  AT K=   0, I=   0, J=   0

 MAXIMUM STEPSIZE WHICH MEETS STABILITY CRITERION OF THE DISPERSION TERM
<<<<<<< Updated upstream
 = 0.6195E-02(WHEN MIN. R.F.=1)  AT K=   3, I=   2, J=  31
     1 CALLS TO GCG PACKAGE FOR TRANSPORT TIME STEP   3 IN FLOW TIME STEP   4 STRESS PERIOD   2
    23 TOTAL ITERATIONS
0WARNING: NUMERICAL OSCILLATION ENCOUNTERED
 ONE OR MORE CELL CONCENTRATIONS LESS THAN CRHOREF
 SMALLEST DENSITY =  0.100E+04
 AT CELL (I,J,K) = (   2,  47,  22)
=======
 = 0.6701E-02(WHEN MIN. R.F.=1)  AT K=   3, I=   2, J=  30
     1 CALLS TO GCG PACKAGE FOR TRANSPORT TIME STEP   6 IN FLOW TIME STEP   4 STRESS PERIOD   2
    24 TOTAL ITERATIONS
0WARNING: NUMERICAL OSCILLATION ENCOUNTERED
 ONE OR MORE CELL CONCENTRATIONS LESS THAN CRHOREF
 SMALLEST DENSITY =  0.100E+04
 AT CELL (I,J,K) = (   1,  62,  20)
>>>>>>> Stashed changes

 
 SOLVING FOR HEAD 
 FLOW MODEL IS TRANSIENT
 FLOW MODEL CONTAINS CONSTANT-HEAD CELLS


 MAXIMUM STEPSIZE DURING WHICH ANY PARTICLE CANNOT MOVE MORE THAN ONE CELL
<<<<<<< Updated upstream
 = 0.1634    (WHEN MIN. R.F.=1)  AT K=   3, I=   2, J=  29

 MAXIMUM STEPSIZE WHICH MEETS STABILITY CRITERION OF THE ADVECTION TERM
 (FOR PURE FINITE-DIFFERENCE OPTION, MIXELM=0) 
 = 0.1133    (WHEN MIN. R.F.=1)  AT K=   3, I=   2, J=  28
=======
 = 0.1871    (WHEN MIN. R.F.=1)  AT K=   3, I=   2, J=  31

 MAXIMUM STEPSIZE WHICH MEETS STABILITY CRITERION OF THE ADVECTION TERM
 (FOR PURE FINITE-DIFFERENCE OPTION, MIXELM=0) 
 = 0.1249    (WHEN MIN. R.F.=1)  AT K=   3, I=   2, J=  30
>>>>>>> Stashed changes


 TOTAL NUMBER OF POINT SOURCES/SINKS PRESENT IN THE FLOW MODEL =   240

 MAXIMUM STEPSIZE WHICH MEETS STABILITY CRITERION OF THE SINK & SOURCE TERM
 = 0.1000E+31(WHEN MIN. R.F.=1)  AT K=   0, I=   0, J=   0

 MAXIMUM STEPSIZE WHICH MEETS STABILITY CRITERION OF THE DISPERSION TERM
<<<<<<< Updated upstream
 = 0.6197E-02(WHEN MIN. R.F.=1)  AT K=   3, I=   2, J=  31
     1 CALLS TO GCG PACKAGE FOR TRANSPORT TIME STEP   4 IN FLOW TIME STEP   4 STRESS PERIOD   2
    23 TOTAL ITERATIONS
0WARNING: NUMERICAL OSCILLATION ENCOUNTERED
 ONE OR MORE CELL CONCENTRATIONS LESS THAN CRHOREF
 SMALLEST DENSITY =  0.100E+04
 AT CELL (I,J,K) = (   2,  47,  22)
=======
 = 0.6702E-02(WHEN MIN. R.F.=1)  AT K=   3, I=   2, J=  30
     1 CALLS TO GCG PACKAGE FOR TRANSPORT TIME STEP   7 IN FLOW TIME STEP   4 STRESS PERIOD   2
    24 TOTAL ITERATIONS
0WARNING: NUMERICAL OSCILLATION ENCOUNTERED
 ONE OR MORE CELL CONCENTRATIONS LESS THAN CRHOREF
 SMALLEST DENSITY =  0.100E+04
 AT CELL (I,J,K) = (   1,  62,  20)
>>>>>>> Stashed changes

 
 SOLVING FOR HEAD 
 FLOW MODEL IS TRANSIENT
 FLOW MODEL CONTAINS CONSTANT-HEAD CELLS


 MAXIMUM STEPSIZE DURING WHICH ANY PARTICLE CANNOT MOVE MORE THAN ONE CELL
<<<<<<< Updated upstream
 = 0.1635    (WHEN MIN. R.F.=1)  AT K=   3, I=   2, J=  29

 MAXIMUM STEPSIZE WHICH MEETS STABILITY CRITERION OF THE ADVECTION TERM
 (FOR PURE FINITE-DIFFERENCE OPTION, MIXELM=0) 
 = 0.1134    (WHEN MIN. R.F.=1)  AT K=   3, I=   2, J=  28
=======
 = 0.1871    (WHEN MIN. R.F.=1)  AT K=   3, I=   2, J=  31

 MAXIMUM STEPSIZE WHICH MEETS STABILITY CRITERION OF THE ADVECTION TERM
 (FOR PURE FINITE-DIFFERENCE OPTION, MIXELM=0) 
 = 0.1249    (WHEN MIN. R.F.=1)  AT K=   3, I=   2, J=  30
>>>>>>> Stashed changes


 TOTAL NUMBER OF POINT SOURCES/SINKS PRESENT IN THE FLOW MODEL =   240

 MAXIMUM STEPSIZE WHICH MEETS STABILITY CRITERION OF THE SINK & SOURCE TERM
 = 0.1000E+31(WHEN MIN. R.F.=1)  AT K=   0, I=   0, J=   0

 MAXIMUM STEPSIZE WHICH MEETS STABILITY CRITERION OF THE DISPERSION TERM
<<<<<<< Updated upstream
 = 0.6198E-02(WHEN MIN. R.F.=1)  AT K=   3, I=   2, J=  31
     1 CALLS TO GCG PACKAGE FOR TRANSPORT TIME STEP   5 IN FLOW TIME STEP   4 STRESS PERIOD   2
    23 TOTAL ITERATIONS
0WARNING: NUMERICAL OSCILLATION ENCOUNTERED
 ONE OR MORE CELL CONCENTRATIONS LESS THAN CRHOREF
 SMALLEST DENSITY =  0.100E+04
 AT CELL (I,J,K) = (   2,  47,  22)
=======
 = 0.6703E-02(WHEN MIN. R.F.=1)  AT K=   3, I=   2, J=  30
     1 CALLS TO GCG PACKAGE FOR TRANSPORT TIME STEP   8 IN FLOW TIME STEP   4 STRESS PERIOD   2
    10 TOTAL ITERATIONS
  MAXIMUM CONCENTRATION CHANGES FOR EACH ITERATION:
  MAX. CHANGE LAYER,ROW,COL MAX. CHANGE LAYER,ROW,COL MAX. CHANGE LAYER,ROW,COL MAX. CHANGE LAYER,ROW,COL MAX. CHANGE LAYER,ROW,COL
 ------------------------------------------------------------------------------------------------------------------------------------
   0.1588E-02 (  7,  2, 51)  0.3363E-03 (  3,  2, 44)  0.1269E-03 (  4,  2, 40)  0.5384E-04 (  3,  2, 37)  0.1476E-04 (  4,  2, 37)
   0.4361E-05 (  3,  2, 37)  0.1111E-05 (  3,  1, 32)  0.3998E-06 (  3,  2, 38)  0.1244E-06 (  4,  2, 38)  0.3783E-07 (  4,  2, 39)
 UBDSV1 SAVING "         STORAGE" ON UNIT  53 AT TIME STEP  4, STRESS PERIOD   2
 UBDSV2 SAVING "   CONSTANT HEAD" ON UNIT  53 AT TIME STEP  4, STRESS PERIOD   2
 UBDSV1 SAVING "FLOW RIGHT FACE " ON UNIT  53 AT TIME STEP  4, STRESS PERIOD   2
 UBDSV1 SAVING "FLOW FRONT FACE " ON UNIT  53 AT TIME STEP  4, STRESS PERIOD   2
 UBDSV1 SAVING "FLOW LOWER FACE " ON UNIT  53 AT TIME STEP  4, STRESS PERIOD   2
 UBDSV1 SAVING "            DCDT" ON UNIT  53 AT TIME STEP  4, STRESS PERIOD   2
0WARNING: NUMERICAL OSCILLATION ENCOUNTERED
 ONE OR MORE CELL CONCENTRATIONS LESS THAN CRHOREF
 SMALLEST DENSITY =  0.100E+04
 AT CELL (I,J,K) = (   1,  62,  20)


 HEAD WILL BE SAVED ON UNIT   51 AT END OF TIME STEP   4, STRESS PERIOD    2


                                          ================================================
                                                         FROM TIME =   5.0000     TO    6.0000    
>>>>>>> Stashed changes

 
 SOLVING FOR HEAD 
 FLOW MODEL IS TRANSIENT
 FLOW MODEL CONTAINS CONSTANT-HEAD CELLS


 MAXIMUM STEPSIZE DURING WHICH ANY PARTICLE CANNOT MOVE MORE THAN ONE CELL
<<<<<<< Updated upstream
 = 0.1635    (WHEN MIN. R.F.=1)  AT K=   3, I=   2, J=  29

 MAXIMUM STEPSIZE WHICH MEETS STABILITY CRITERION OF THE ADVECTION TERM
 (FOR PURE FINITE-DIFFERENCE OPTION, MIXELM=0) 
 = 0.1134    (WHEN MIN. R.F.=1)  AT K=   3, I=   2, J=  28
=======
 = 0.1871    (WHEN MIN. R.F.=1)  AT K=   3, I=   2, J=  31

 MAXIMUM STEPSIZE WHICH MEETS STABILITY CRITERION OF THE ADVECTION TERM
 (FOR PURE FINITE-DIFFERENCE OPTION, MIXELM=0) 
 = 0.1249    (WHEN MIN. R.F.=1)  AT K=   3, I=   2, J=  30
>>>>>>> Stashed changes


 TOTAL NUMBER OF POINT SOURCES/SINKS PRESENT IN THE FLOW MODEL =   240

 MAXIMUM STEPSIZE WHICH MEETS STABILITY CRITERION OF THE SINK & SOURCE TERM
 = 0.1000E+31(WHEN MIN. R.F.=1)  AT K=   0, I=   0, J=   0

 MAXIMUM STEPSIZE WHICH MEETS STABILITY CRITERION OF THE DISPERSION TERM
<<<<<<< Updated upstream
 = 0.6199E-02(WHEN MIN. R.F.=1)  AT K=   3, I=   2, J=  31
     1 CALLS TO GCG PACKAGE FOR TRANSPORT TIME STEP   6 IN FLOW TIME STEP   4 STRESS PERIOD   2
    23 TOTAL ITERATIONS
0WARNING: NUMERICAL OSCILLATION ENCOUNTERED
 ONE OR MORE CELL CONCENTRATIONS LESS THAN CRHOREF
 SMALLEST DENSITY =  0.100E+04
 AT CELL (I,J,K) = (   2,  47,  22)
=======
 = 0.6704E-02(WHEN MIN. R.F.=1)  AT K=   3, I=   2, J=  30


     1 CALLS TO GCG PACKAGE FOR TRANSPORT TIME STEP   1 IN FLOW TIME STEP   5 STRESS PERIOD   2
    24 TOTAL ITERATIONS

 OUTPUT CONTROL FOR STRESS PERIOD    2   TIME STEP   5
    SAVE HEAD FOR ALL LAYERS
    SAVE BUDGET
0WARNING: NUMERICAL OSCILLATION ENCOUNTERED
 ONE OR MORE CELL CONCENTRATIONS LESS THAN CRHOREF
 SMALLEST DENSITY =  0.100E+04
 AT CELL (I,J,K) = (   1,  62,  20)
>>>>>>> Stashed changes

 
 SOLVING FOR HEAD 
 FLOW MODEL IS TRANSIENT
 FLOW MODEL CONTAINS CONSTANT-HEAD CELLS


 MAXIMUM STEPSIZE DURING WHICH ANY PARTICLE CANNOT MOVE MORE THAN ONE CELL
<<<<<<< Updated upstream
 = 0.1635    (WHEN MIN. R.F.=1)  AT K=   3, I=   2, J=  29

 MAXIMUM STEPSIZE WHICH MEETS STABILITY CRITERION OF THE ADVECTION TERM
 (FOR PURE FINITE-DIFFERENCE OPTION, MIXELM=0) 
 = 0.1134    (WHEN MIN. R.F.=1)  AT K=   3, I=   2, J=  28
=======
 = 0.1871    (WHEN MIN. R.F.=1)  AT K=   3, I=   2, J=  31

 MAXIMUM STEPSIZE WHICH MEETS STABILITY CRITERION OF THE ADVECTION TERM
 (FOR PURE FINITE-DIFFERENCE OPTION, MIXELM=0) 
 = 0.1249    (WHEN MIN. R.F.=1)  AT K=   3, I=   2, J=  30
>>>>>>> Stashed changes


 TOTAL NUMBER OF POINT SOURCES/SINKS PRESENT IN THE FLOW MODEL =   240

 MAXIMUM STEPSIZE WHICH MEETS STABILITY CRITERION OF THE SINK & SOURCE TERM
 = 0.1000E+31(WHEN MIN. R.F.=1)  AT K=   0, I=   0, J=   0

 MAXIMUM STEPSIZE WHICH MEETS STABILITY CRITERION OF THE DISPERSION TERM
<<<<<<< Updated upstream
 = 0.6200E-02(WHEN MIN. R.F.=1)  AT K=   3, I=   2, J=  31
     1 CALLS TO GCG PACKAGE FOR TRANSPORT TIME STEP   7 IN FLOW TIME STEP   4 STRESS PERIOD   2
    23 TOTAL ITERATIONS
0WARNING: NUMERICAL OSCILLATION ENCOUNTERED
 ONE OR MORE CELL CONCENTRATIONS LESS THAN CRHOREF
 SMALLEST DENSITY =  0.100E+04
 AT CELL (I,J,K) = (   2,  48,  22)
=======
 = 0.6705E-02(WHEN MIN. R.F.=1)  AT K=   3, I=   2, J=  30
     1 CALLS TO GCG PACKAGE FOR TRANSPORT TIME STEP   2 IN FLOW TIME STEP   5 STRESS PERIOD   2
    24 TOTAL ITERATIONS
0WARNING: NUMERICAL OSCILLATION ENCOUNTERED
 ONE OR MORE CELL CONCENTRATIONS LESS THAN CRHOREF
 SMALLEST DENSITY =  0.100E+04
 AT CELL (I,J,K) = (   1,  62,  20)
>>>>>>> Stashed changes

 
 SOLVING FOR HEAD 
 FLOW MODEL IS TRANSIENT
 FLOW MODEL CONTAINS CONSTANT-HEAD CELLS


 MAXIMUM STEPSIZE DURING WHICH ANY PARTICLE CANNOT MOVE MORE THAN ONE CELL
<<<<<<< Updated upstream
 = 0.1635    (WHEN MIN. R.F.=1)  AT K=   3, I=   2, J=  29

 MAXIMUM STEPSIZE WHICH MEETS STABILITY CRITERION OF THE ADVECTION TERM
 (FOR PURE FINITE-DIFFERENCE OPTION, MIXELM=0) 
 = 0.1134    (WHEN MIN. R.F.=1)  AT K=   3, I=   2, J=  28
=======
 = 0.1871    (WHEN MIN. R.F.=1)  AT K=   3, I=   2, J=  31

 MAXIMUM STEPSIZE WHICH MEETS STABILITY CRITERION OF THE ADVECTION TERM
 (FOR PURE FINITE-DIFFERENCE OPTION, MIXELM=0) 
 = 0.1249    (WHEN MIN. R.F.=1)  AT K=   3, I=   2, J=  30
>>>>>>> Stashed changes


 TOTAL NUMBER OF POINT SOURCES/SINKS PRESENT IN THE FLOW MODEL =   240

 MAXIMUM STEPSIZE WHICH MEETS STABILITY CRITERION OF THE SINK & SOURCE TERM
 = 0.1000E+31(WHEN MIN. R.F.=1)  AT K=   0, I=   0, J=   0

 MAXIMUM STEPSIZE WHICH MEETS STABILITY CRITERION OF THE DISPERSION TERM
<<<<<<< Updated upstream
 = 0.6201E-02(WHEN MIN. R.F.=1)  AT K=   3, I=   2, J=  31
     1 CALLS TO GCG PACKAGE FOR TRANSPORT TIME STEP   8 IN FLOW TIME STEP   4 STRESS PERIOD   2
    23 TOTAL ITERATIONS
0WARNING: NUMERICAL OSCILLATION ENCOUNTERED
 ONE OR MORE CELL CONCENTRATIONS LESS THAN CRHOREF
 SMALLEST DENSITY =  0.100E+04
 AT CELL (I,J,K) = (   2,  48,  22)
=======
 = 0.6706E-02(WHEN MIN. R.F.=1)  AT K=   3, I=   2, J=  30
     1 CALLS TO GCG PACKAGE FOR TRANSPORT TIME STEP   3 IN FLOW TIME STEP   5 STRESS PERIOD   2
    24 TOTAL ITERATIONS
0WARNING: NUMERICAL OSCILLATION ENCOUNTERED
 ONE OR MORE CELL CONCENTRATIONS LESS THAN CRHOREF
 SMALLEST DENSITY =  0.100E+04
 AT CELL (I,J,K) = (   1,  62,  20)
>>>>>>> Stashed changes

 
 SOLVING FOR HEAD 
 FLOW MODEL IS TRANSIENT
 FLOW MODEL CONTAINS CONSTANT-HEAD CELLS


 MAXIMUM STEPSIZE DURING WHICH ANY PARTICLE CANNOT MOVE MORE THAN ONE CELL
<<<<<<< Updated upstream
 = 0.1635    (WHEN MIN. R.F.=1)  AT K=   3, I=   2, J=  29

 MAXIMUM STEPSIZE WHICH MEETS STABILITY CRITERION OF THE ADVECTION TERM
 (FOR PURE FINITE-DIFFERENCE OPTION, MIXELM=0) 
 = 0.1134    (WHEN MIN. R.F.=1)  AT K=   3, I=   2, J=  28
=======
 = 0.1871    (WHEN MIN. R.F.=1)  AT K=   3, I=   2, J=  31

 MAXIMUM STEPSIZE WHICH MEETS STABILITY CRITERION OF THE ADVECTION TERM
 (FOR PURE FINITE-DIFFERENCE OPTION, MIXELM=0) 
 = 0.1249    (WHEN MIN. R.F.=1)  AT K=   3, I=   2, J=  30
>>>>>>> Stashed changes


 TOTAL NUMBER OF POINT SOURCES/SINKS PRESENT IN THE FLOW MODEL =   240

 MAXIMUM STEPSIZE WHICH MEETS STABILITY CRITERION OF THE SINK & SOURCE TERM
 = 0.1000E+31(WHEN MIN. R.F.=1)  AT K=   0, I=   0, J=   0

 MAXIMUM STEPSIZE WHICH MEETS STABILITY CRITERION OF THE DISPERSION TERM
<<<<<<< Updated upstream
 = 0.6202E-02(WHEN MIN. R.F.=1)  AT K=   3, I=   2, J=  31
     1 CALLS TO GCG PACKAGE FOR TRANSPORT TIME STEP   9 IN FLOW TIME STEP   4 STRESS PERIOD   2
    10 TOTAL ITERATIONS
  MAXIMUM CONCENTRATION CHANGES FOR EACH ITERATION:
  MAX. CHANGE LAYER,ROW,COL MAX. CHANGE LAYER,ROW,COL MAX. CHANGE LAYER,ROW,COL MAX. CHANGE LAYER,ROW,COL MAX. CHANGE LAYER,ROW,COL
 ------------------------------------------------------------------------------------------------------------------------------------
   0.1771E-02 (  9,  3, 51)  0.3744E-03 (  6,  1, 52)  0.1189E-03 (  4,  2, 42)  0.4308E-04 (  3,  2, 33)  0.1807E-04 (  4,  3, 31)
   0.8857E-05 (  3,  3, 31)  0.2263E-05 (  4,  3, 31)  0.6691E-06 (  3,  3, 29)  0.2606E-06 (  4,  3, 29)  0.9356E-07 (  3,  2, 30)
0WARNING: NUMERICAL OSCILLATION ENCOUNTERED
 ONE OR MORE CELL CONCENTRATIONS LESS THAN CRHOREF
 SMALLEST DENSITY =  0.100E+04
 AT CELL (I,J,K) = (   2,  48,  22)



                                          ================================================
                                                         FROM TIME =   5.0000     TO    6.0000    
=======
 = 0.6706E-02(WHEN MIN. R.F.=1)  AT K=   3, I=   2, J=  30
     1 CALLS TO GCG PACKAGE FOR TRANSPORT TIME STEP   4 IN FLOW TIME STEP   5 STRESS PERIOD   2
    24 TOTAL ITERATIONS
0WARNING: NUMERICAL OSCILLATION ENCOUNTERED
 ONE OR MORE CELL CONCENTRATIONS LESS THAN CRHOREF
 SMALLEST DENSITY =  0.100E+04
 AT CELL (I,J,K) = (   1,  62,  20)
>>>>>>> Stashed changes

 
 SOLVING FOR HEAD 
 FLOW MODEL IS TRANSIENT
 FLOW MODEL CONTAINS CONSTANT-HEAD CELLS


 MAXIMUM STEPSIZE DURING WHICH ANY PARTICLE CANNOT MOVE MORE THAN ONE CELL
<<<<<<< Updated upstream
 = 0.1635    (WHEN MIN. R.F.=1)  AT K=   3, I=   2, J=  29

 MAXIMUM STEPSIZE WHICH MEETS STABILITY CRITERION OF THE ADVECTION TERM
 (FOR PURE FINITE-DIFFERENCE OPTION, MIXELM=0) 
 = 0.1134    (WHEN MIN. R.F.=1)  AT K=   3, I=   2, J=  28
=======
 = 0.1872    (WHEN MIN. R.F.=1)  AT K=   3, I=   2, J=  31

 MAXIMUM STEPSIZE WHICH MEETS STABILITY CRITERION OF THE ADVECTION TERM
 (FOR PURE FINITE-DIFFERENCE OPTION, MIXELM=0) 
 = 0.1250    (WHEN MIN. R.F.=1)  AT K=   3, I=   2, J=  30
>>>>>>> Stashed changes


 TOTAL NUMBER OF POINT SOURCES/SINKS PRESENT IN THE FLOW MODEL =   240

 MAXIMUM STEPSIZE WHICH MEETS STABILITY CRITERION OF THE SINK & SOURCE TERM
 = 0.1000E+31(WHEN MIN. R.F.=1)  AT K=   0, I=   0, J=   0

 MAXIMUM STEPSIZE WHICH MEETS STABILITY CRITERION OF THE DISPERSION TERM
<<<<<<< Updated upstream
 = 0.6202E-02(WHEN MIN. R.F.=1)  AT K=   3, I=   2, J=  31


     1 CALLS TO GCG PACKAGE FOR TRANSPORT TIME STEP   1 IN FLOW TIME STEP   5 STRESS PERIOD   2
    23 TOTAL ITERATIONS

 NO OUTPUT CONTROL FOR STRESS PERIOD    2   TIME STEP   5
0WARNING: NUMERICAL OSCILLATION ENCOUNTERED
 ONE OR MORE CELL CONCENTRATIONS LESS THAN CRHOREF
 SMALLEST DENSITY =  0.100E+04
 AT CELL (I,J,K) = (   2,  48,  22)
=======
 = 0.6707E-02(WHEN MIN. R.F.=1)  AT K=   3, I=   2, J=  30
     1 CALLS TO GCG PACKAGE FOR TRANSPORT TIME STEP   5 IN FLOW TIME STEP   5 STRESS PERIOD   2
    24 TOTAL ITERATIONS
0WARNING: NUMERICAL OSCILLATION ENCOUNTERED
 ONE OR MORE CELL CONCENTRATIONS LESS THAN CRHOREF
 SMALLEST DENSITY =  0.100E+04
 AT CELL (I,J,K) = (   1,  62,  20)
>>>>>>> Stashed changes

 
 SOLVING FOR HEAD 
 FLOW MODEL IS TRANSIENT
 FLOW MODEL CONTAINS CONSTANT-HEAD CELLS


 MAXIMUM STEPSIZE DURING WHICH ANY PARTICLE CANNOT MOVE MORE THAN ONE CELL
<<<<<<< Updated upstream
 = 0.1636    (WHEN MIN. R.F.=1)  AT K=   3, I=   2, J=  29

 MAXIMUM STEPSIZE WHICH MEETS STABILITY CRITERION OF THE ADVECTION TERM
 (FOR PURE FINITE-DIFFERENCE OPTION, MIXELM=0) 
 = 0.1134    (WHEN MIN. R.F.=1)  AT K=   3, I=   2, J=  28
=======
 = 0.1872    (WHEN MIN. R.F.=1)  AT K=   3, I=   2, J=  31

 MAXIMUM STEPSIZE WHICH MEETS STABILITY CRITERION OF THE ADVECTION TERM
 (FOR PURE FINITE-DIFFERENCE OPTION, MIXELM=0) 
 = 0.1250    (WHEN MIN. R.F.=1)  AT K=   3, I=   2, J=  30
>>>>>>> Stashed changes


 TOTAL NUMBER OF POINT SOURCES/SINKS PRESENT IN THE FLOW MODEL =   240

 MAXIMUM STEPSIZE WHICH MEETS STABILITY CRITERION OF THE SINK & SOURCE TERM
 = 0.1000E+31(WHEN MIN. R.F.=1)  AT K=   0, I=   0, J=   0

 MAXIMUM STEPSIZE WHICH MEETS STABILITY CRITERION OF THE DISPERSION TERM
<<<<<<< Updated upstream
 = 0.6203E-02(WHEN MIN. R.F.=1)  AT K=   3, I=   2, J=  31
     1 CALLS TO GCG PACKAGE FOR TRANSPORT TIME STEP   2 IN FLOW TIME STEP   5 STRESS PERIOD   2
=======
 = 0.6708E-02(WHEN MIN. R.F.=1)  AT K=   3, I=   2, J=  30
     1 CALLS TO GCG PACKAGE FOR TRANSPORT TIME STEP   6 IN FLOW TIME STEP   5 STRESS PERIOD   2
>>>>>>> Stashed changes
    23 TOTAL ITERATIONS
0WARNING: NUMERICAL OSCILLATION ENCOUNTERED
 ONE OR MORE CELL CONCENTRATIONS LESS THAN CRHOREF
 SMALLEST DENSITY =  0.100E+04
<<<<<<< Updated upstream
 AT CELL (I,J,K) = (   2,  48,  22)
=======
 AT CELL (I,J,K) = (   1,  62,  20)
>>>>>>> Stashed changes

 
 SOLVING FOR HEAD 
 FLOW MODEL IS TRANSIENT
 FLOW MODEL CONTAINS CONSTANT-HEAD CELLS


 MAXIMUM STEPSIZE DURING WHICH ANY PARTICLE CANNOT MOVE MORE THAN ONE CELL
<<<<<<< Updated upstream
 = 0.1636    (WHEN MIN. R.F.=1)  AT K=   3, I=   2, J=  29

 MAXIMUM STEPSIZE WHICH MEETS STABILITY CRITERION OF THE ADVECTION TERM
 (FOR PURE FINITE-DIFFERENCE OPTION, MIXELM=0) 
 = 0.1134    (WHEN MIN. R.F.=1)  AT K=   3, I=   2, J=  28
=======
 = 0.1872    (WHEN MIN. R.F.=1)  AT K=   3, I=   2, J=  31

 MAXIMUM STEPSIZE WHICH MEETS STABILITY CRITERION OF THE ADVECTION TERM
 (FOR PURE FINITE-DIFFERENCE OPTION, MIXELM=0) 
 = 0.1250    (WHEN MIN. R.F.=1)  AT K=   3, I=   2, J=  30
>>>>>>> Stashed changes


 TOTAL NUMBER OF POINT SOURCES/SINKS PRESENT IN THE FLOW MODEL =   240

 MAXIMUM STEPSIZE WHICH MEETS STABILITY CRITERION OF THE SINK & SOURCE TERM
 = 0.1000E+31(WHEN MIN. R.F.=1)  AT K=   0, I=   0, J=   0

 MAXIMUM STEPSIZE WHICH MEETS STABILITY CRITERION OF THE DISPERSION TERM
<<<<<<< Updated upstream
 = 0.6204E-02(WHEN MIN. R.F.=1)  AT K=   3, I=   2, J=  31
     1 CALLS TO GCG PACKAGE FOR TRANSPORT TIME STEP   3 IN FLOW TIME STEP   5 STRESS PERIOD   2
=======
 = 0.6709E-02(WHEN MIN. R.F.=1)  AT K=   3, I=   2, J=  30
     1 CALLS TO GCG PACKAGE FOR TRANSPORT TIME STEP   7 IN FLOW TIME STEP   5 STRESS PERIOD   2
>>>>>>> Stashed changes
    23 TOTAL ITERATIONS
0WARNING: NUMERICAL OSCILLATION ENCOUNTERED
 ONE OR MORE CELL CONCENTRATIONS LESS THAN CRHOREF
 SMALLEST DENSITY =  0.100E+04
<<<<<<< Updated upstream
 AT CELL (I,J,K) = (   3,  68,  16)
=======
 AT CELL (I,J,K) = (   1,  62,  20)
>>>>>>> Stashed changes

 
 SOLVING FOR HEAD 
 FLOW MODEL IS TRANSIENT
 FLOW MODEL CONTAINS CONSTANT-HEAD CELLS


 MAXIMUM STEPSIZE DURING WHICH ANY PARTICLE CANNOT MOVE MORE THAN ONE CELL
<<<<<<< Updated upstream
 = 0.1636    (WHEN MIN. R.F.=1)  AT K=   3, I=   2, J=  29

 MAXIMUM STEPSIZE WHICH MEETS STABILITY CRITERION OF THE ADVECTION TERM
 (FOR PURE FINITE-DIFFERENCE OPTION, MIXELM=0) 
 = 0.1134    (WHEN MIN. R.F.=1)  AT K=   3, I=   2, J=  28
=======
 = 0.1872    (WHEN MIN. R.F.=1)  AT K=   3, I=   2, J=  31

 MAXIMUM STEPSIZE WHICH MEETS STABILITY CRITERION OF THE ADVECTION TERM
 (FOR PURE FINITE-DIFFERENCE OPTION, MIXELM=0) 
 = 0.1250    (WHEN MIN. R.F.=1)  AT K=   3, I=   2, J=  30
>>>>>>> Stashed changes


 TOTAL NUMBER OF POINT SOURCES/SINKS PRESENT IN THE FLOW MODEL =   240

 MAXIMUM STEPSIZE WHICH MEETS STABILITY CRITERION OF THE SINK & SOURCE TERM
 = 0.1000E+31(WHEN MIN. R.F.=1)  AT K=   0, I=   0, J=   0

 MAXIMUM STEPSIZE WHICH MEETS STABILITY CRITERION OF THE DISPERSION TERM
<<<<<<< Updated upstream
 = 0.6204E-02(WHEN MIN. R.F.=1)  AT K=   3, I=   2, J=  31
     1 CALLS TO GCG PACKAGE FOR TRANSPORT TIME STEP   4 IN FLOW TIME STEP   5 STRESS PERIOD   2
    23 TOTAL ITERATIONS
0WARNING: NUMERICAL OSCILLATION ENCOUNTERED
 ONE OR MORE CELL CONCENTRATIONS LESS THAN CRHOREF
 SMALLEST DENSITY =  0.100E+04
 AT CELL (I,J,K) = (   3,  68,  16)
=======
 = 0.6709E-02(WHEN MIN. R.F.=1)  AT K=   3, I=   2, J=  30
     1 CALLS TO GCG PACKAGE FOR TRANSPORT TIME STEP   8 IN FLOW TIME STEP   5 STRESS PERIOD   2
     9 TOTAL ITERATIONS
  MAXIMUM CONCENTRATION CHANGES FOR EACH ITERATION:
  MAX. CHANGE LAYER,ROW,COL MAX. CHANGE LAYER,ROW,COL MAX. CHANGE LAYER,ROW,COL MAX. CHANGE LAYER,ROW,COL MAX. CHANGE LAYER,ROW,COL
 ------------------------------------------------------------------------------------------------------------------------------------
   0.1283E-02 (  9,  2, 51)  0.2307E-03 (  3,  2, 44)  0.8573E-04 (  4,  2, 40)  0.3458E-04 (  3,  2, 37)  0.9247E-05 (  4,  2, 37)
   0.2652E-05 (  3,  2, 37)  0.6802E-06 (  3,  2, 32)  0.2404E-06 (  3,  2, 38)  0.7248E-07 (  4,  2, 38)
 UBDSV1 SAVING "         STORAGE" ON UNIT  53 AT TIME STEP  5, STRESS PERIOD   2
 UBDSV2 SAVING "   CONSTANT HEAD" ON UNIT  53 AT TIME STEP  5, STRESS PERIOD   2
 UBDSV1 SAVING "FLOW RIGHT FACE " ON UNIT  53 AT TIME STEP  5, STRESS PERIOD   2
 UBDSV1 SAVING "FLOW FRONT FACE " ON UNIT  53 AT TIME STEP  5, STRESS PERIOD   2
 UBDSV1 SAVING "FLOW LOWER FACE " ON UNIT  53 AT TIME STEP  5, STRESS PERIOD   2
 UBDSV1 SAVING "            DCDT" ON UNIT  53 AT TIME STEP  5, STRESS PERIOD   2
0WARNING: NUMERICAL OSCILLATION ENCOUNTERED
 ONE OR MORE CELL CONCENTRATIONS LESS THAN CRHOREF
 SMALLEST DENSITY =  0.100E+04
 AT CELL (I,J,K) = (   1,  62,  20)


 HEAD WILL BE SAVED ON UNIT   51 AT END OF TIME STEP   5, STRESS PERIOD    2


                                          ================================================
                                                         FROM TIME =   6.0000     TO    7.0000    
>>>>>>> Stashed changes

 
 SOLVING FOR HEAD 
 FLOW MODEL IS TRANSIENT
 FLOW MODEL CONTAINS CONSTANT-HEAD CELLS


 MAXIMUM STEPSIZE DURING WHICH ANY PARTICLE CANNOT MOVE MORE THAN ONE CELL
<<<<<<< Updated upstream
 = 0.1636    (WHEN MIN. R.F.=1)  AT K=   3, I=   2, J=  29

 MAXIMUM STEPSIZE WHICH MEETS STABILITY CRITERION OF THE ADVECTION TERM
 (FOR PURE FINITE-DIFFERENCE OPTION, MIXELM=0) 
 = 0.1134    (WHEN MIN. R.F.=1)  AT K=   3, I=   2, J=  28
=======
 = 0.1872    (WHEN MIN. R.F.=1)  AT K=   3, I=   2, J=  31

 MAXIMUM STEPSIZE WHICH MEETS STABILITY CRITERION OF THE ADVECTION TERM
 (FOR PURE FINITE-DIFFERENCE OPTION, MIXELM=0) 
 = 0.1250    (WHEN MIN. R.F.=1)  AT K=   3, I=   2, J=  30
>>>>>>> Stashed changes


 TOTAL NUMBER OF POINT SOURCES/SINKS PRESENT IN THE FLOW MODEL =   240

 MAXIMUM STEPSIZE WHICH MEETS STABILITY CRITERION OF THE SINK & SOURCE TERM
 = 0.1000E+31(WHEN MIN. R.F.=1)  AT K=   0, I=   0, J=   0

 MAXIMUM STEPSIZE WHICH MEETS STABILITY CRITERION OF THE DISPERSION TERM
<<<<<<< Updated upstream
 = 0.6205E-02(WHEN MIN. R.F.=1)  AT K=   3, I=   2, J=  31
     1 CALLS TO GCG PACKAGE FOR TRANSPORT TIME STEP   5 IN FLOW TIME STEP   5 STRESS PERIOD   2
    23 TOTAL ITERATIONS
0WARNING: NUMERICAL OSCILLATION ENCOUNTERED
 ONE OR MORE CELL CONCENTRATIONS LESS THAN CRHOREF
 SMALLEST DENSITY =  0.100E+04
 AT CELL (I,J,K) = (   3,  68,  16)
=======
 = 0.6709E-02(WHEN MIN. R.F.=1)  AT K=   3, I=   2, J=  30


     1 CALLS TO GCG PACKAGE FOR TRANSPORT TIME STEP   1 IN FLOW TIME STEP   6 STRESS PERIOD   2
    23 TOTAL ITERATIONS

 OUTPUT CONTROL FOR STRESS PERIOD    2   TIME STEP   6
    SAVE HEAD FOR ALL LAYERS
    SAVE BUDGET
0WARNING: NUMERICAL OSCILLATION ENCOUNTERED
 ONE OR MORE CELL CONCENTRATIONS LESS THAN CRHOREF
 SMALLEST DENSITY =  0.100E+04
 AT CELL (I,J,K) = (   1,  62,  20)
>>>>>>> Stashed changes

 
 SOLVING FOR HEAD 
 FLOW MODEL IS TRANSIENT
 FLOW MODEL CONTAINS CONSTANT-HEAD CELLS


 MAXIMUM STEPSIZE DURING WHICH ANY PARTICLE CANNOT MOVE MORE THAN ONE CELL
<<<<<<< Updated upstream
 = 0.1636    (WHEN MIN. R.F.=1)  AT K=   3, I=   2, J=  29

 MAXIMUM STEPSIZE WHICH MEETS STABILITY CRITERION OF THE ADVECTION TERM
 (FOR PURE FINITE-DIFFERENCE OPTION, MIXELM=0) 
 = 0.1135    (WHEN MIN. R.F.=1)  AT K=   3, I=   2, J=  28
=======
 = 0.1872    (WHEN MIN. R.F.=1)  AT K=   3, I=   2, J=  31

 MAXIMUM STEPSIZE WHICH MEETS STABILITY CRITERION OF THE ADVECTION TERM
 (FOR PURE FINITE-DIFFERENCE OPTION, MIXELM=0) 
 = 0.1250    (WHEN MIN. R.F.=1)  AT K=   3, I=   2, J=  30
>>>>>>> Stashed changes


 TOTAL NUMBER OF POINT SOURCES/SINKS PRESENT IN THE FLOW MODEL =   240

 MAXIMUM STEPSIZE WHICH MEETS STABILITY CRITERION OF THE SINK & SOURCE TERM
 = 0.1000E+31(WHEN MIN. R.F.=1)  AT K=   0, I=   0, J=   0

 MAXIMUM STEPSIZE WHICH MEETS STABILITY CRITERION OF THE DISPERSION TERM
<<<<<<< Updated upstream
 = 0.6205E-02(WHEN MIN. R.F.=1)  AT K=   3, I=   2, J=  31
     1 CALLS TO GCG PACKAGE FOR TRANSPORT TIME STEP   6 IN FLOW TIME STEP   5 STRESS PERIOD   2
=======
 = 0.6710E-02(WHEN MIN. R.F.=1)  AT K=   3, I=   2, J=  30
     1 CALLS TO GCG PACKAGE FOR TRANSPORT TIME STEP   2 IN FLOW TIME STEP   6 STRESS PERIOD   2
>>>>>>> Stashed changes
    23 TOTAL ITERATIONS
0WARNING: NUMERICAL OSCILLATION ENCOUNTERED
 ONE OR MORE CELL CONCENTRATIONS LESS THAN CRHOREF
 SMALLEST DENSITY =  0.100E+04
<<<<<<< Updated upstream
 AT CELL (I,J,K) = (   3,  64,  19)
=======
 AT CELL (I,J,K) = (   1,  62,  20)
>>>>>>> Stashed changes

 
 SOLVING FOR HEAD 
 FLOW MODEL IS TRANSIENT
 FLOW MODEL CONTAINS CONSTANT-HEAD CELLS


 MAXIMUM STEPSIZE DURING WHICH ANY PARTICLE CANNOT MOVE MORE THAN ONE CELL
<<<<<<< Updated upstream
 = 0.1636    (WHEN MIN. R.F.=1)  AT K=   3, I=   2, J=  29

 MAXIMUM STEPSIZE WHICH MEETS STABILITY CRITERION OF THE ADVECTION TERM
 (FOR PURE FINITE-DIFFERENCE OPTION, MIXELM=0) 
 = 0.1135    (WHEN MIN. R.F.=1)  AT K=   3, I=   2, J=  28
=======
 = 0.1872    (WHEN MIN. R.F.=1)  AT K=   3, I=   2, J=  31

 MAXIMUM STEPSIZE WHICH MEETS STABILITY CRITERION OF THE ADVECTION TERM
 (FOR PURE FINITE-DIFFERENCE OPTION, MIXELM=0) 
 = 0.1250    (WHEN MIN. R.F.=1)  AT K=   3, I=   2, J=  30
>>>>>>> Stashed changes


 TOTAL NUMBER OF POINT SOURCES/SINKS PRESENT IN THE FLOW MODEL =   240

 MAXIMUM STEPSIZE WHICH MEETS STABILITY CRITERION OF THE SINK & SOURCE TERM
 = 0.1000E+31(WHEN MIN. R.F.=1)  AT K=   0, I=   0, J=   0

 MAXIMUM STEPSIZE WHICH MEETS STABILITY CRITERION OF THE DISPERSION TERM
<<<<<<< Updated upstream
 = 0.6206E-02(WHEN MIN. R.F.=1)  AT K=   3, I=   2, J=  31
     1 CALLS TO GCG PACKAGE FOR TRANSPORT TIME STEP   7 IN FLOW TIME STEP   5 STRESS PERIOD   2
=======
 = 0.6710E-02(WHEN MIN. R.F.=1)  AT K=   3, I=   2, J=  30
     1 CALLS TO GCG PACKAGE FOR TRANSPORT TIME STEP   3 IN FLOW TIME STEP   6 STRESS PERIOD   2
>>>>>>> Stashed changes
    23 TOTAL ITERATIONS
0WARNING: NUMERICAL OSCILLATION ENCOUNTERED
 ONE OR MORE CELL CONCENTRATIONS LESS THAN CRHOREF
 SMALLEST DENSITY =  0.100E+04
<<<<<<< Updated upstream
 AT CELL (I,J,K) = (   3,  64,  19)
=======
 AT CELL (I,J,K) = (   1,  62,  20)
>>>>>>> Stashed changes

 
 SOLVING FOR HEAD 
 FLOW MODEL IS TRANSIENT
 FLOW MODEL CONTAINS CONSTANT-HEAD CELLS


 MAXIMUM STEPSIZE DURING WHICH ANY PARTICLE CANNOT MOVE MORE THAN ONE CELL
<<<<<<< Updated upstream
 = 0.1636    (WHEN MIN. R.F.=1)  AT K=   3, I=   2, J=  29

 MAXIMUM STEPSIZE WHICH MEETS STABILITY CRITERION OF THE ADVECTION TERM
 (FOR PURE FINITE-DIFFERENCE OPTION, MIXELM=0) 
 = 0.1135    (WHEN MIN. R.F.=1)  AT K=   3, I=   2, J=  28
=======
 = 0.1872    (WHEN MIN. R.F.=1)  AT K=   3, I=   2, J=  31

 MAXIMUM STEPSIZE WHICH MEETS STABILITY CRITERION OF THE ADVECTION TERM
 (FOR PURE FINITE-DIFFERENCE OPTION, MIXELM=0) 
 = 0.1250    (WHEN MIN. R.F.=1)  AT K=   3, I=   2, J=  30
>>>>>>> Stashed changes


 TOTAL NUMBER OF POINT SOURCES/SINKS PRESENT IN THE FLOW MODEL =   240

 MAXIMUM STEPSIZE WHICH MEETS STABILITY CRITERION OF THE SINK & SOURCE TERM
 = 0.1000E+31(WHEN MIN. R.F.=1)  AT K=   0, I=   0, J=   0

 MAXIMUM STEPSIZE WHICH MEETS STABILITY CRITERION OF THE DISPERSION TERM
<<<<<<< Updated upstream
 = 0.6206E-02(WHEN MIN. R.F.=1)  AT K=   3, I=   2, J=  31
     1 CALLS TO GCG PACKAGE FOR TRANSPORT TIME STEP   8 IN FLOW TIME STEP   5 STRESS PERIOD   2
    22 TOTAL ITERATIONS
0WARNING: NUMERICAL OSCILLATION ENCOUNTERED
 ONE OR MORE CELL CONCENTRATIONS LESS THAN CRHOREF
 SMALLEST DENSITY =  0.100E+04
 AT CELL (I,J,K) = (   3,  64,  19)
=======
 = 0.6711E-02(WHEN MIN. R.F.=1)  AT K=   3, I=   2, J=  30
     1 CALLS TO GCG PACKAGE FOR TRANSPORT TIME STEP   4 IN FLOW TIME STEP   6 STRESS PERIOD   2
    23 TOTAL ITERATIONS
0WARNING: NUMERICAL OSCILLATION ENCOUNTERED
 ONE OR MORE CELL CONCENTRATIONS LESS THAN CRHOREF
 SMALLEST DENSITY =  0.100E+04
 AT CELL (I,J,K) = (   1,  63,  20)
>>>>>>> Stashed changes

 
 SOLVING FOR HEAD 
 FLOW MODEL IS TRANSIENT
 FLOW MODEL CONTAINS CONSTANT-HEAD CELLS


 MAXIMUM STEPSIZE DURING WHICH ANY PARTICLE CANNOT MOVE MORE THAN ONE CELL
<<<<<<< Updated upstream
 = 0.1636    (WHEN MIN. R.F.=1)  AT K=   3, I=   2, J=  29

 MAXIMUM STEPSIZE WHICH MEETS STABILITY CRITERION OF THE ADVECTION TERM
 (FOR PURE FINITE-DIFFERENCE OPTION, MIXELM=0) 
 = 0.1135    (WHEN MIN. R.F.=1)  AT K=   3, I=   2, J=  28
=======
 = 0.1872    (WHEN MIN. R.F.=1)  AT K=   3, I=   2, J=  31

 MAXIMUM STEPSIZE WHICH MEETS STABILITY CRITERION OF THE ADVECTION TERM
 (FOR PURE FINITE-DIFFERENCE OPTION, MIXELM=0) 
 = 0.1250    (WHEN MIN. R.F.=1)  AT K=   3, I=   2, J=  30
>>>>>>> Stashed changes


 TOTAL NUMBER OF POINT SOURCES/SINKS PRESENT IN THE FLOW MODEL =   240

 MAXIMUM STEPSIZE WHICH MEETS STABILITY CRITERION OF THE SINK & SOURCE TERM
 = 0.1000E+31(WHEN MIN. R.F.=1)  AT K=   0, I=   0, J=   0

 MAXIMUM STEPSIZE WHICH MEETS STABILITY CRITERION OF THE DISPERSION TERM
<<<<<<< Updated upstream
 = 0.6207E-02(WHEN MIN. R.F.=1)  AT K=   3, I=   2, J=  31
     1 CALLS TO GCG PACKAGE FOR TRANSPORT TIME STEP   9 IN FLOW TIME STEP   5 STRESS PERIOD   2
    10 TOTAL ITERATIONS
  MAXIMUM CONCENTRATION CHANGES FOR EACH ITERATION:
  MAX. CHANGE LAYER,ROW,COL MAX. CHANGE LAYER,ROW,COL MAX. CHANGE LAYER,ROW,COL MAX. CHANGE LAYER,ROW,COL MAX. CHANGE LAYER,ROW,COL
 ------------------------------------------------------------------------------------------------------------------------------------
   0.1424E-02 (  9,  3, 52)  0.2799E-03 (  6,  1, 52)  0.8119E-04 (  4,  2, 42)  0.2880E-04 (  3,  3, 31)  0.1214E-04 (  4,  3, 31)
   0.5787E-05 (  3,  3, 31)  0.1410E-05 (  4,  3, 31)  0.4203E-06 (  3,  3, 29)  0.1597E-06 (  4,  3, 29)  0.5555E-07 (  3,  2, 30)
0WARNING: NUMERICAL OSCILLATION ENCOUNTERED
 ONE OR MORE CELL CONCENTRATIONS LESS THAN CRHOREF
 SMALLEST DENSITY =  0.100E+04
 AT CELL (I,J,K) = (   3,  64,  19)



                                          ================================================
                                                         FROM TIME =   6.0000     TO    7.0000    
=======
 = 0.6711E-02(WHEN MIN. R.F.=1)  AT K=   3, I=   2, J=  30
     1 CALLS TO GCG PACKAGE FOR TRANSPORT TIME STEP   5 IN FLOW TIME STEP   6 STRESS PERIOD   2
    23 TOTAL ITERATIONS
0WARNING: NUMERICAL OSCILLATION ENCOUNTERED
 ONE OR MORE CELL CONCENTRATIONS LESS THAN CRHOREF
 SMALLEST DENSITY =  0.100E+04
 AT CELL (I,J,K) = (   1,  63,  20)
>>>>>>> Stashed changes

 
 SOLVING FOR HEAD 
 FLOW MODEL IS TRANSIENT
 FLOW MODEL CONTAINS CONSTANT-HEAD CELLS


 MAXIMUM STEPSIZE DURING WHICH ANY PARTICLE CANNOT MOVE MORE THAN ONE CELL
<<<<<<< Updated upstream
 = 0.1636    (WHEN MIN. R.F.=1)  AT K=   3, I=   2, J=  29

 MAXIMUM STEPSIZE WHICH MEETS STABILITY CRITERION OF THE ADVECTION TERM
 (FOR PURE FINITE-DIFFERENCE OPTION, MIXELM=0) 
 = 0.1135    (WHEN MIN. R.F.=1)  AT K=   3, I=   2, J=  28
=======
 = 0.1872    (WHEN MIN. R.F.=1)  AT K=   3, I=   2, J=  31

 MAXIMUM STEPSIZE WHICH MEETS STABILITY CRITERION OF THE ADVECTION TERM
 (FOR PURE FINITE-DIFFERENCE OPTION, MIXELM=0) 
 = 0.1250    (WHEN MIN. R.F.=1)  AT K=   3, I=   2, J=  30
>>>>>>> Stashed changes


 TOTAL NUMBER OF POINT SOURCES/SINKS PRESENT IN THE FLOW MODEL =   240

 MAXIMUM STEPSIZE WHICH MEETS STABILITY CRITERION OF THE SINK & SOURCE TERM
 = 0.1000E+31(WHEN MIN. R.F.=1)  AT K=   0, I=   0, J=   0

 MAXIMUM STEPSIZE WHICH MEETS STABILITY CRITERION OF THE DISPERSION TERM
<<<<<<< Updated upstream
 = 0.6207E-02(WHEN MIN. R.F.=1)  AT K=   3, I=   2, J=  31


     1 CALLS TO GCG PACKAGE FOR TRANSPORT TIME STEP   1 IN FLOW TIME STEP   6 STRESS PERIOD   2
    23 TOTAL ITERATIONS

 NO OUTPUT CONTROL FOR STRESS PERIOD    2   TIME STEP   6
0WARNING: NUMERICAL OSCILLATION ENCOUNTERED
 ONE OR MORE CELL CONCENTRATIONS LESS THAN CRHOREF
 SMALLEST DENSITY =  0.100E+04
 AT CELL (I,J,K) = (   3,  64,  19)
=======
 = 0.6712E-02(WHEN MIN. R.F.=1)  AT K=   3, I=   2, J=  30
     1 CALLS TO GCG PACKAGE FOR TRANSPORT TIME STEP   6 IN FLOW TIME STEP   6 STRESS PERIOD   2
    21 TOTAL ITERATIONS
0WARNING: NUMERICAL OSCILLATION ENCOUNTERED
 ONE OR MORE CELL CONCENTRATIONS LESS THAN CRHOREF
 SMALLEST DENSITY =  0.100E+04
 AT CELL (I,J,K) = (   1,  63,  20)
>>>>>>> Stashed changes

 
 SOLVING FOR HEAD 
 FLOW MODEL IS TRANSIENT
 FLOW MODEL CONTAINS CONSTANT-HEAD CELLS


 MAXIMUM STEPSIZE DURING WHICH ANY PARTICLE CANNOT MOVE MORE THAN ONE CELL
<<<<<<< Updated upstream
 = 0.1636    (WHEN MIN. R.F.=1)  AT K=   3, I=   2, J=  29

 MAXIMUM STEPSIZE WHICH MEETS STABILITY CRITERION OF THE ADVECTION TERM
 (FOR PURE FINITE-DIFFERENCE OPTION, MIXELM=0) 
 = 0.1135    (WHEN MIN. R.F.=1)  AT K=   3, I=   2, J=  28
=======
 = 0.1873    (WHEN MIN. R.F.=1)  AT K=   3, I=   2, J=  31

 MAXIMUM STEPSIZE WHICH MEETS STABILITY CRITERION OF THE ADVECTION TERM
 (FOR PURE FINITE-DIFFERENCE OPTION, MIXELM=0) 
 = 0.1250    (WHEN MIN. R.F.=1)  AT K=   3, I=   2, J=  30
>>>>>>> Stashed changes


 TOTAL NUMBER OF POINT SOURCES/SINKS PRESENT IN THE FLOW MODEL =   240

 MAXIMUM STEPSIZE WHICH MEETS STABILITY CRITERION OF THE SINK & SOURCE TERM
 = 0.1000E+31(WHEN MIN. R.F.=1)  AT K=   0, I=   0, J=   0

 MAXIMUM STEPSIZE WHICH MEETS STABILITY CRITERION OF THE DISPERSION TERM
<<<<<<< Updated upstream
 = 0.6207E-02(WHEN MIN. R.F.=1)  AT K=   3, I=   2, J=  31
     1 CALLS TO GCG PACKAGE FOR TRANSPORT TIME STEP   2 IN FLOW TIME STEP   6 STRESS PERIOD   2
    22 TOTAL ITERATIONS
0WARNING: NUMERICAL OSCILLATION ENCOUNTERED
 ONE OR MORE CELL CONCENTRATIONS LESS THAN CRHOREF
 SMALLEST DENSITY =  0.100E+04
 AT CELL (I,J,K) = (   3,  64,  19)
=======
 = 0.6712E-02(WHEN MIN. R.F.=1)  AT K=   3, I=   2, J=  30
     1 CALLS TO GCG PACKAGE FOR TRANSPORT TIME STEP   7 IN FLOW TIME STEP   6 STRESS PERIOD   2
    23 TOTAL ITERATIONS
0WARNING: NUMERICAL OSCILLATION ENCOUNTERED
 ONE OR MORE CELL CONCENTRATIONS LESS THAN CRHOREF
 SMALLEST DENSITY =  0.100E+04
 AT CELL (I,J,K) = (   1,  63,  20)
>>>>>>> Stashed changes

 
 SOLVING FOR HEAD 
 FLOW MODEL IS TRANSIENT
 FLOW MODEL CONTAINS CONSTANT-HEAD CELLS


 MAXIMUM STEPSIZE DURING WHICH ANY PARTICLE CANNOT MOVE MORE THAN ONE CELL
<<<<<<< Updated upstream
 = 0.1636    (WHEN MIN. R.F.=1)  AT K=   3, I=   2, J=  29

 MAXIMUM STEPSIZE WHICH MEETS STABILITY CRITERION OF THE ADVECTION TERM
 (FOR PURE FINITE-DIFFERENCE OPTION, MIXELM=0) 
 = 0.1135    (WHEN MIN. R.F.=1)  AT K=   3, I=   2, J=  28
=======
 = 0.1873    (WHEN MIN. R.F.=1)  AT K=   3, I=   2, J=  31

 MAXIMUM STEPSIZE WHICH MEETS STABILITY CRITERION OF THE ADVECTION TERM
 (FOR PURE FINITE-DIFFERENCE OPTION, MIXELM=0) 
 = 0.1250    (WHEN MIN. R.F.=1)  AT K=   3, I=   2, J=  30
>>>>>>> Stashed changes


 TOTAL NUMBER OF POINT SOURCES/SINKS PRESENT IN THE FLOW MODEL =   240

 MAXIMUM STEPSIZE WHICH MEETS STABILITY CRITERION OF THE SINK & SOURCE TERM
 = 0.1000E+31(WHEN MIN. R.F.=1)  AT K=   0, I=   0, J=   0

 MAXIMUM STEPSIZE WHICH MEETS STABILITY CRITERION OF THE DISPERSION TERM
<<<<<<< Updated upstream
 = 0.6208E-02(WHEN MIN. R.F.=1)  AT K=   3, I=   2, J=  31
     1 CALLS TO GCG PACKAGE FOR TRANSPORT TIME STEP   3 IN FLOW TIME STEP   6 STRESS PERIOD   2
    22 TOTAL ITERATIONS
0WARNING: NUMERICAL OSCILLATION ENCOUNTERED
 ONE OR MORE CELL CONCENTRATIONS LESS THAN CRHOREF
 SMALLEST DENSITY =  0.100E+04
 AT CELL (I,J,K) = (   3,  64,  19)
=======
 = 0.6712E-02(WHEN MIN. R.F.=1)  AT K=   3, I=   2, J=  30
     1 CALLS TO GCG PACKAGE FOR TRANSPORT TIME STEP   8 IN FLOW TIME STEP   6 STRESS PERIOD   2
     9 TOTAL ITERATIONS
  MAXIMUM CONCENTRATION CHANGES FOR EACH ITERATION:
  MAX. CHANGE LAYER,ROW,COL MAX. CHANGE LAYER,ROW,COL MAX. CHANGE LAYER,ROW,COL MAX. CHANGE LAYER,ROW,COL MAX. CHANGE LAYER,ROW,COL
 ------------------------------------------------------------------------------------------------------------------------------------
   0.1071E-02 (  9,  2, 51)  0.1746E-03 (  4,  2, 52)  0.6303E-04 (  4,  2, 41)  0.2475E-04 (  3,  2, 37)  0.6491E-05 (  4,  2, 37)
   0.1839E-05 (  3,  2, 37)  0.4734E-06 (  3,  1, 32)  0.1668E-06 (  3,  2, 38)  0.4913E-07 (  4,  2, 38)
 UBDSV1 SAVING "         STORAGE" ON UNIT  53 AT TIME STEP  6, STRESS PERIOD   2
 UBDSV2 SAVING "   CONSTANT HEAD" ON UNIT  53 AT TIME STEP  6, STRESS PERIOD   2
 UBDSV1 SAVING "FLOW RIGHT FACE " ON UNIT  53 AT TIME STEP  6, STRESS PERIOD   2
 UBDSV1 SAVING "FLOW FRONT FACE " ON UNIT  53 AT TIME STEP  6, STRESS PERIOD   2
 UBDSV1 SAVING "FLOW LOWER FACE " ON UNIT  53 AT TIME STEP  6, STRESS PERIOD   2
 UBDSV1 SAVING "            DCDT" ON UNIT  53 AT TIME STEP  6, STRESS PERIOD   2
0WARNING: NUMERICAL OSCILLATION ENCOUNTERED
 ONE OR MORE CELL CONCENTRATIONS LESS THAN CRHOREF
 SMALLEST DENSITY =  0.100E+04
 AT CELL (I,J,K) = (   1,  63,  20)


 HEAD WILL BE SAVED ON UNIT   51 AT END OF TIME STEP   6, STRESS PERIOD    2


                                          ================================================
                                                         FROM TIME =   7.0000     TO    8.0000    
>>>>>>> Stashed changes

 
 SOLVING FOR HEAD 
 FLOW MODEL IS TRANSIENT
 FLOW MODEL CONTAINS CONSTANT-HEAD CELLS


 MAXIMUM STEPSIZE DURING WHICH ANY PARTICLE CANNOT MOVE MORE THAN ONE CELL
<<<<<<< Updated upstream
 = 0.1637    (WHEN MIN. R.F.=1)  AT K=   3, I=   2, J=  29

 MAXIMUM STEPSIZE WHICH MEETS STABILITY CRITERION OF THE ADVECTION TERM
 (FOR PURE FINITE-DIFFERENCE OPTION, MIXELM=0) 
 = 0.1135    (WHEN MIN. R.F.=1)  AT K=   3, I=   2, J=  28
=======
 = 0.1873    (WHEN MIN. R.F.=1)  AT K=   3, I=   2, J=  31

 MAXIMUM STEPSIZE WHICH MEETS STABILITY CRITERION OF THE ADVECTION TERM
 (FOR PURE FINITE-DIFFERENCE OPTION, MIXELM=0) 
 = 0.1250    (WHEN MIN. R.F.=1)  AT K=   3, I=   2, J=  30
>>>>>>> Stashed changes


 TOTAL NUMBER OF POINT SOURCES/SINKS PRESENT IN THE FLOW MODEL =   240

 MAXIMUM STEPSIZE WHICH MEETS STABILITY CRITERION OF THE SINK & SOURCE TERM
 = 0.1000E+31(WHEN MIN. R.F.=1)  AT K=   0, I=   0, J=   0

 MAXIMUM STEPSIZE WHICH MEETS STABILITY CRITERION OF THE DISPERSION TERM
<<<<<<< Updated upstream
 = 0.6208E-02(WHEN MIN. R.F.=1)  AT K=   3, I=   2, J=  31
     1 CALLS TO GCG PACKAGE FOR TRANSPORT TIME STEP   4 IN FLOW TIME STEP   6 STRESS PERIOD   2
    22 TOTAL ITERATIONS
0WARNING: NUMERICAL OSCILLATION ENCOUNTERED
 ONE OR MORE CELL CONCENTRATIONS LESS THAN CRHOREF
 SMALLEST DENSITY =  0.100E+04
 AT CELL (I,J,K) = (   3,  64,  19)
=======
 = 0.6712E-02(WHEN MIN. R.F.=1)  AT K=   3, I=   2, J=  30


     1 CALLS TO GCG PACKAGE FOR TRANSPORT TIME STEP   1 IN FLOW TIME STEP   7 STRESS PERIOD   2
    21 TOTAL ITERATIONS

 OUTPUT CONTROL FOR STRESS PERIOD    2   TIME STEP   7
    SAVE HEAD FOR ALL LAYERS
    SAVE BUDGET
0WARNING: NUMERICAL OSCILLATION ENCOUNTERED
 ONE OR MORE CELL CONCENTRATIONS LESS THAN CRHOREF
 SMALLEST DENSITY =  0.100E+04
 AT CELL (I,J,K) = (   1,  63,  20)
>>>>>>> Stashed changes

 
 SOLVING FOR HEAD 
 FLOW MODEL IS TRANSIENT
 FLOW MODEL CONTAINS CONSTANT-HEAD CELLS


 MAXIMUM STEPSIZE DURING WHICH ANY PARTICLE CANNOT MOVE MORE THAN ONE CELL
<<<<<<< Updated upstream
 = 0.1637    (WHEN MIN. R.F.=1)  AT K=   3, I=   2, J=  29

 MAXIMUM STEPSIZE WHICH MEETS STABILITY CRITERION OF THE ADVECTION TERM
 (FOR PURE FINITE-DIFFERENCE OPTION, MIXELM=0) 
 = 0.1135    (WHEN MIN. R.F.=1)  AT K=   3, I=   2, J=  28
=======
 = 0.1873    (WHEN MIN. R.F.=1)  AT K=   3, I=   2, J=  31

 MAXIMUM STEPSIZE WHICH MEETS STABILITY CRITERION OF THE ADVECTION TERM
 (FOR PURE FINITE-DIFFERENCE OPTION, MIXELM=0) 
 = 0.1250    (WHEN MIN. R.F.=1)  AT K=   3, I=   2, J=  30
>>>>>>> Stashed changes


 TOTAL NUMBER OF POINT SOURCES/SINKS PRESENT IN THE FLOW MODEL =   240

 MAXIMUM STEPSIZE WHICH MEETS STABILITY CRITERION OF THE SINK & SOURCE TERM
 = 0.1000E+31(WHEN MIN. R.F.=1)  AT K=   0, I=   0, J=   0

 MAXIMUM STEPSIZE WHICH MEETS STABILITY CRITERION OF THE DISPERSION TERM
<<<<<<< Updated upstream
 = 0.6208E-02(WHEN MIN. R.F.=1)  AT K=   3, I=   2, J=  31
     1 CALLS TO GCG PACKAGE FOR TRANSPORT TIME STEP   5 IN FLOW TIME STEP   6 STRESS PERIOD   2
    22 TOTAL ITERATIONS
0WARNING: NUMERICAL OSCILLATION ENCOUNTERED
 ONE OR MORE CELL CONCENTRATIONS LESS THAN CRHOREF
 SMALLEST DENSITY =  0.100E+04
 AT CELL (I,J,K) = (   3,  64,  19)
=======
 = 0.6713E-02(WHEN MIN. R.F.=1)  AT K=   3, I=   2, J=  30
     1 CALLS TO GCG PACKAGE FOR TRANSPORT TIME STEP   2 IN FLOW TIME STEP   7 STRESS PERIOD   2
    24 TOTAL ITERATIONS
0WARNING: NUMERICAL OSCILLATION ENCOUNTERED
 ONE OR MORE CELL CONCENTRATIONS LESS THAN CRHOREF
 SMALLEST DENSITY =  0.100E+04
 AT CELL (I,J,K) = (   1,  63,  20)
>>>>>>> Stashed changes

 
 SOLVING FOR HEAD 
 FLOW MODEL IS TRANSIENT
 FLOW MODEL CONTAINS CONSTANT-HEAD CELLS


 MAXIMUM STEPSIZE DURING WHICH ANY PARTICLE CANNOT MOVE MORE THAN ONE CELL
<<<<<<< Updated upstream
 = 0.1637    (WHEN MIN. R.F.=1)  AT K=   3, I=   2, J=  29

 MAXIMUM STEPSIZE WHICH MEETS STABILITY CRITERION OF THE ADVECTION TERM
 (FOR PURE FINITE-DIFFERENCE OPTION, MIXELM=0) 
 = 0.1135    (WHEN MIN. R.F.=1)  AT K=   3, I=   2, J=  28
=======
 = 0.1873    (WHEN MIN. R.F.=1)  AT K=   3, I=   2, J=  31

 MAXIMUM STEPSIZE WHICH MEETS STABILITY CRITERION OF THE ADVECTION TERM
 (FOR PURE FINITE-DIFFERENCE OPTION, MIXELM=0) 
 = 0.1250    (WHEN MIN. R.F.=1)  AT K=   3, I=   2, J=  30
>>>>>>> Stashed changes


 TOTAL NUMBER OF POINT SOURCES/SINKS PRESENT IN THE FLOW MODEL =   240

 MAXIMUM STEPSIZE WHICH MEETS STABILITY CRITERION OF THE SINK & SOURCE TERM
 = 0.1000E+31(WHEN MIN. R.F.=1)  AT K=   0, I=   0, J=   0

 MAXIMUM STEPSIZE WHICH MEETS STABILITY CRITERION OF THE DISPERSION TERM
<<<<<<< Updated upstream
 = 0.6209E-02(WHEN MIN. R.F.=1)  AT K=   3, I=   2, J=  31
     1 CALLS TO GCG PACKAGE FOR TRANSPORT TIME STEP   6 IN FLOW TIME STEP   6 STRESS PERIOD   2
    22 TOTAL ITERATIONS
0WARNING: NUMERICAL OSCILLATION ENCOUNTERED
 ONE OR MORE CELL CONCENTRATIONS LESS THAN CRHOREF
 SMALLEST DENSITY =  0.100E+04
 AT CELL (I,J,K) = (   3,  64,  19)
=======
 = 0.6713E-02(WHEN MIN. R.F.=1)  AT K=   3, I=   2, J=  30
     1 CALLS TO GCG PACKAGE FOR TRANSPORT TIME STEP   3 IN FLOW TIME STEP   7 STRESS PERIOD   2
    21 TOTAL ITERATIONS
0WARNING: NUMERICAL OSCILLATION ENCOUNTERED
 ONE OR MORE CELL CONCENTRATIONS LESS THAN CRHOREF
 SMALLEST DENSITY =  0.100E+04
 AT CELL (I,J,K) = (   1,  63,  20)
>>>>>>> Stashed changes

 
 SOLVING FOR HEAD 
 FLOW MODEL IS TRANSIENT
 FLOW MODEL CONTAINS CONSTANT-HEAD CELLS


 MAXIMUM STEPSIZE DURING WHICH ANY PARTICLE CANNOT MOVE MORE THAN ONE CELL
<<<<<<< Updated upstream
 = 0.1637    (WHEN MIN. R.F.=1)  AT K=   3, I=   2, J=  29

 MAXIMUM STEPSIZE WHICH MEETS STABILITY CRITERION OF THE ADVECTION TERM
 (FOR PURE FINITE-DIFFERENCE OPTION, MIXELM=0) 
 = 0.1135    (WHEN MIN. R.F.=1)  AT K=   3, I=   2, J=  28
=======
 = 0.1873    (WHEN MIN. R.F.=1)  AT K=   3, I=   2, J=  31

 MAXIMUM STEPSIZE WHICH MEETS STABILITY CRITERION OF THE ADVECTION TERM
 (FOR PURE FINITE-DIFFERENCE OPTION, MIXELM=0) 
 = 0.1250    (WHEN MIN. R.F.=1)  AT K=   3, I=   2, J=  30
>>>>>>> Stashed changes


 TOTAL NUMBER OF POINT SOURCES/SINKS PRESENT IN THE FLOW MODEL =   240

 MAXIMUM STEPSIZE WHICH MEETS STABILITY CRITERION OF THE SINK & SOURCE TERM
 = 0.1000E+31(WHEN MIN. R.F.=1)  AT K=   0, I=   0, J=   0

 MAXIMUM STEPSIZE WHICH MEETS STABILITY CRITERION OF THE DISPERSION TERM
<<<<<<< Updated upstream
 = 0.6209E-02(WHEN MIN. R.F.=1)  AT K=   3, I=   2, J=  31
     1 CALLS TO GCG PACKAGE FOR TRANSPORT TIME STEP   7 IN FLOW TIME STEP   6 STRESS PERIOD   2
=======
 = 0.6713E-02(WHEN MIN. R.F.=1)  AT K=   3, I=   2, J=  30
     1 CALLS TO GCG PACKAGE FOR TRANSPORT TIME STEP   4 IN FLOW TIME STEP   7 STRESS PERIOD   2
>>>>>>> Stashed changes
    22 TOTAL ITERATIONS
0WARNING: NUMERICAL OSCILLATION ENCOUNTERED
 ONE OR MORE CELL CONCENTRATIONS LESS THAN CRHOREF
 SMALLEST DENSITY =  0.100E+04
<<<<<<< Updated upstream
 AT CELL (I,J,K) = (   2,  64,  19)
=======
 AT CELL (I,J,K) = (   1,  63,  20)
>>>>>>> Stashed changes

 
 SOLVING FOR HEAD 
 FLOW MODEL IS TRANSIENT
 FLOW MODEL CONTAINS CONSTANT-HEAD CELLS


 MAXIMUM STEPSIZE DURING WHICH ANY PARTICLE CANNOT MOVE MORE THAN ONE CELL
<<<<<<< Updated upstream
 = 0.1637    (WHEN MIN. R.F.=1)  AT K=   3, I=   2, J=  29

 MAXIMUM STEPSIZE WHICH MEETS STABILITY CRITERION OF THE ADVECTION TERM
 (FOR PURE FINITE-DIFFERENCE OPTION, MIXELM=0) 
 = 0.1135    (WHEN MIN. R.F.=1)  AT K=   3, I=   2, J=  28
=======
 = 0.1873    (WHEN MIN. R.F.=1)  AT K=   3, I=   2, J=  31

 MAXIMUM STEPSIZE WHICH MEETS STABILITY CRITERION OF THE ADVECTION TERM
 (FOR PURE FINITE-DIFFERENCE OPTION, MIXELM=0) 
 = 0.1250    (WHEN MIN. R.F.=1)  AT K=   3, I=   2, J=  30
>>>>>>> Stashed changes


 TOTAL NUMBER OF POINT SOURCES/SINKS PRESENT IN THE FLOW MODEL =   240

 MAXIMUM STEPSIZE WHICH MEETS STABILITY CRITERION OF THE SINK & SOURCE TERM
 = 0.1000E+31(WHEN MIN. R.F.=1)  AT K=   0, I=   0, J=   0

 MAXIMUM STEPSIZE WHICH MEETS STABILITY CRITERION OF THE DISPERSION TERM
<<<<<<< Updated upstream
 = 0.6209E-02(WHEN MIN. R.F.=1)  AT K=   3, I=   2, J=  31
     1 CALLS TO GCG PACKAGE FOR TRANSPORT TIME STEP   8 IN FLOW TIME STEP   6 STRESS PERIOD   2
    22 TOTAL ITERATIONS
0WARNING: NUMERICAL OSCILLATION ENCOUNTERED
 ONE OR MORE CELL CONCENTRATIONS LESS THAN CRHOREF
 SMALLEST DENSITY =  0.100E+04
 AT CELL (I,J,K) = (   2,  64,  19)
=======
 = 0.6713E-02(WHEN MIN. R.F.=1)  AT K=   3, I=   2, J=  30
     1 CALLS TO GCG PACKAGE FOR TRANSPORT TIME STEP   5 IN FLOW TIME STEP   7 STRESS PERIOD   2
    23 TOTAL ITERATIONS
0WARNING: NUMERICAL OSCILLATION ENCOUNTERED
 ONE OR MORE CELL CONCENTRATIONS LESS THAN CRHOREF
 SMALLEST DENSITY =  0.100E+04
 AT CELL (I,J,K) = (   1,  63,  20)
>>>>>>> Stashed changes

 
 SOLVING FOR HEAD 
 FLOW MODEL IS TRANSIENT
 FLOW MODEL CONTAINS CONSTANT-HEAD CELLS


 MAXIMUM STEPSIZE DURING WHICH ANY PARTICLE CANNOT MOVE MORE THAN ONE CELL
<<<<<<< Updated upstream
 = 0.1637    (WHEN MIN. R.F.=1)  AT K=   3, I=   2, J=  29

 MAXIMUM STEPSIZE WHICH MEETS STABILITY CRITERION OF THE ADVECTION TERM
 (FOR PURE FINITE-DIFFERENCE OPTION, MIXELM=0) 
 = 0.1135    (WHEN MIN. R.F.=1)  AT K=   3, I=   2, J=  28
=======
 = 0.1873    (WHEN MIN. R.F.=1)  AT K=   3, I=   2, J=  31

 MAXIMUM STEPSIZE WHICH MEETS STABILITY CRITERION OF THE ADVECTION TERM
 (FOR PURE FINITE-DIFFERENCE OPTION, MIXELM=0) 
 = 0.1250    (WHEN MIN. R.F.=1)  AT K=   3, I=   2, J=  30
>>>>>>> Stashed changes


 TOTAL NUMBER OF POINT SOURCES/SINKS PRESENT IN THE FLOW MODEL =   240

 MAXIMUM STEPSIZE WHICH MEETS STABILITY CRITERION OF THE SINK & SOURCE TERM
 = 0.1000E+31(WHEN MIN. R.F.=1)  AT K=   0, I=   0, J=   0

 MAXIMUM STEPSIZE WHICH MEETS STABILITY CRITERION OF THE DISPERSION TERM
<<<<<<< Updated upstream
 = 0.6210E-02(WHEN MIN. R.F.=1)  AT K=   3, I=   2, J=  31
     1 CALLS TO GCG PACKAGE FOR TRANSPORT TIME STEP   9 IN FLOW TIME STEP   6 STRESS PERIOD   2
    10 TOTAL ITERATIONS
  MAXIMUM CONCENTRATION CHANGES FOR EACH ITERATION:
  MAX. CHANGE LAYER,ROW,COL MAX. CHANGE LAYER,ROW,COL MAX. CHANGE LAYER,ROW,COL MAX. CHANGE LAYER,ROW,COL MAX. CHANGE LAYER,ROW,COL
 ------------------------------------------------------------------------------------------------------------------------------------
   0.1189E-02 (  9,  3, 52)  0.2219E-03 (  6,  1, 52)  0.6029E-04 (  4,  2, 42)  0.2176E-04 (  3,  3, 31)  0.8951E-05 (  4,  3, 31)
   0.4213E-05 (  3,  3, 31)  0.1000E-05 (  4,  3, 31)  0.3029E-06 (  3,  3, 29)  0.1126E-06 (  4,  3, 29)  0.3864E-07 (  3,  2, 30)
0WARNING: NUMERICAL OSCILLATION ENCOUNTERED
 ONE OR MORE CELL CONCENTRATIONS LESS THAN CRHOREF
 SMALLEST DENSITY =  0.100E+04
 AT CELL (I,J,K) = (   2,  64,  19)



                                          ================================================
                                                         FROM TIME =   7.0000     TO    8.0000    
=======
 = 0.6714E-02(WHEN MIN. R.F.=1)  AT K=   3, I=   2, J=  30
     1 CALLS TO GCG PACKAGE FOR TRANSPORT TIME STEP   6 IN FLOW TIME STEP   7 STRESS PERIOD   2
    21 TOTAL ITERATIONS
0WARNING: NUMERICAL OSCILLATION ENCOUNTERED
 ONE OR MORE CELL CONCENTRATIONS LESS THAN CRHOREF
 SMALLEST DENSITY =  0.100E+04
 AT CELL (I,J,K) = (   1,  63,  20)
>>>>>>> Stashed changes

 
 SOLVING FOR HEAD 
 FLOW MODEL IS TRANSIENT
 FLOW MODEL CONTAINS CONSTANT-HEAD CELLS


 MAXIMUM STEPSIZE DURING WHICH ANY PARTICLE CANNOT MOVE MORE THAN ONE CELL
<<<<<<< Updated upstream
 = 0.1637    (WHEN MIN. R.F.=1)  AT K=   3, I=   2, J=  29

 MAXIMUM STEPSIZE WHICH MEETS STABILITY CRITERION OF THE ADVECTION TERM
 (FOR PURE FINITE-DIFFERENCE OPTION, MIXELM=0) 
 = 0.1135    (WHEN MIN. R.F.=1)  AT K=   3, I=   2, J=  28
=======
 = 0.1873    (WHEN MIN. R.F.=1)  AT K=   3, I=   2, J=  31

 MAXIMUM STEPSIZE WHICH MEETS STABILITY CRITERION OF THE ADVECTION TERM
 (FOR PURE FINITE-DIFFERENCE OPTION, MIXELM=0) 
 = 0.1250    (WHEN MIN. R.F.=1)  AT K=   3, I=   2, J=  30
>>>>>>> Stashed changes


 TOTAL NUMBER OF POINT SOURCES/SINKS PRESENT IN THE FLOW MODEL =   240

 MAXIMUM STEPSIZE WHICH MEETS STABILITY CRITERION OF THE SINK & SOURCE TERM
 = 0.1000E+31(WHEN MIN. R.F.=1)  AT K=   0, I=   0, J=   0

 MAXIMUM STEPSIZE WHICH MEETS STABILITY CRITERION OF THE DISPERSION TERM
<<<<<<< Updated upstream
 = 0.6210E-02(WHEN MIN. R.F.=1)  AT K=   3, I=   2, J=  31


     1 CALLS TO GCG PACKAGE FOR TRANSPORT TIME STEP   1 IN FLOW TIME STEP   7 STRESS PERIOD   2
    22 TOTAL ITERATIONS

 NO OUTPUT CONTROL FOR STRESS PERIOD    2   TIME STEP   7
0WARNING: NUMERICAL OSCILLATION ENCOUNTERED
 ONE OR MORE CELL CONCENTRATIONS LESS THAN CRHOREF
 SMALLEST DENSITY =  0.100E+04
 AT CELL (I,J,K) = (   3,  65,  19)
=======
 = 0.6714E-02(WHEN MIN. R.F.=1)  AT K=   3, I=   2, J=  30
     1 CALLS TO GCG PACKAGE FOR TRANSPORT TIME STEP   7 IN FLOW TIME STEP   7 STRESS PERIOD   2
    23 TOTAL ITERATIONS
0WARNING: NUMERICAL OSCILLATION ENCOUNTERED
 ONE OR MORE CELL CONCENTRATIONS LESS THAN CRHOREF
 SMALLEST DENSITY =  0.100E+04
 AT CELL (I,J,K) = (   1,  63,  20)
>>>>>>> Stashed changes

 
 SOLVING FOR HEAD 
 FLOW MODEL IS TRANSIENT
 FLOW MODEL CONTAINS CONSTANT-HEAD CELLS


 MAXIMUM STEPSIZE DURING WHICH ANY PARTICLE CANNOT MOVE MORE THAN ONE CELL
<<<<<<< Updated upstream
 = 0.1637    (WHEN MIN. R.F.=1)  AT K=   3, I=   2, J=  29

 MAXIMUM STEPSIZE WHICH MEETS STABILITY CRITERION OF THE ADVECTION TERM
 (FOR PURE FINITE-DIFFERENCE OPTION, MIXELM=0) 
 = 0.1135    (WHEN MIN. R.F.=1)  AT K=   3, I=   2, J=  28
=======
 = 0.1873    (WHEN MIN. R.F.=1)  AT K=   3, I=   2, J=  31

 MAXIMUM STEPSIZE WHICH MEETS STABILITY CRITERION OF THE ADVECTION TERM
 (FOR PURE FINITE-DIFFERENCE OPTION, MIXELM=0) 
 = 0.1250    (WHEN MIN. R.F.=1)  AT K=   3, I=   2, J=  30
>>>>>>> Stashed changes


 TOTAL NUMBER OF POINT SOURCES/SINKS PRESENT IN THE FLOW MODEL =   240

 MAXIMUM STEPSIZE WHICH MEETS STABILITY CRITERION OF THE SINK & SOURCE TERM
 = 0.1000E+31(WHEN MIN. R.F.=1)  AT K=   0, I=   0, J=   0

 MAXIMUM STEPSIZE WHICH MEETS STABILITY CRITERION OF THE DISPERSION TERM
<<<<<<< Updated upstream
 = 0.6210E-02(WHEN MIN. R.F.=1)  AT K=   3, I=   2, J=  31
     1 CALLS TO GCG PACKAGE FOR TRANSPORT TIME STEP   2 IN FLOW TIME STEP   7 STRESS PERIOD   2
    22 TOTAL ITERATIONS
0WARNING: NUMERICAL OSCILLATION ENCOUNTERED
 ONE OR MORE CELL CONCENTRATIONS LESS THAN CRHOREF
 SMALLEST DENSITY =  0.100E+04
 AT CELL (I,J,K) = (   3,  65,  19)
=======
 = 0.6714E-02(WHEN MIN. R.F.=1)  AT K=   3, I=   2, J=  30
     1 CALLS TO GCG PACKAGE FOR TRANSPORT TIME STEP   8 IN FLOW TIME STEP   7 STRESS PERIOD   2
     9 TOTAL ITERATIONS
  MAXIMUM CONCENTRATION CHANGES FOR EACH ITERATION:
  MAX. CHANGE LAYER,ROW,COL MAX. CHANGE LAYER,ROW,COL MAX. CHANGE LAYER,ROW,COL MAX. CHANGE LAYER,ROW,COL MAX. CHANGE LAYER,ROW,COL
 ------------------------------------------------------------------------------------------------------------------------------------
   0.9101E-03 (  9,  2, 52)  0.1415E-03 (  4,  2, 52)  0.4894E-04 (  4,  2, 41)  0.1889E-04 (  3,  2, 37)  0.4866E-05 (  4,  2, 37)
   0.1375E-05 (  3,  2, 37)  0.3575E-06 (  3,  2, 32)  0.1249E-06 (  3,  2, 38)  0.3617E-07 (  4,  2, 38)
 UBDSV1 SAVING "         STORAGE" ON UNIT  53 AT TIME STEP  7, STRESS PERIOD   2
 UBDSV2 SAVING "   CONSTANT HEAD" ON UNIT  53 AT TIME STEP  7, STRESS PERIOD   2
 UBDSV1 SAVING "FLOW RIGHT FACE " ON UNIT  53 AT TIME STEP  7, STRESS PERIOD   2
 UBDSV1 SAVING "FLOW FRONT FACE " ON UNIT  53 AT TIME STEP  7, STRESS PERIOD   2
 UBDSV1 SAVING "FLOW LOWER FACE " ON UNIT  53 AT TIME STEP  7, STRESS PERIOD   2
 UBDSV1 SAVING "            DCDT" ON UNIT  53 AT TIME STEP  7, STRESS PERIOD   2
0WARNING: NUMERICAL OSCILLATION ENCOUNTERED
 ONE OR MORE CELL CONCENTRATIONS LESS THAN CRHOREF
 SMALLEST DENSITY =  0.100E+04
 AT CELL (I,J,K) = (   1,  63,  20)


 HEAD WILL BE SAVED ON UNIT   51 AT END OF TIME STEP   7, STRESS PERIOD    2


                                          ================================================
                                                         FROM TIME =   8.0000     TO    9.0000    
>>>>>>> Stashed changes

 
 SOLVING FOR HEAD 
 FLOW MODEL IS TRANSIENT
 FLOW MODEL CONTAINS CONSTANT-HEAD CELLS


 MAXIMUM STEPSIZE DURING WHICH ANY PARTICLE CANNOT MOVE MORE THAN ONE CELL
<<<<<<< Updated upstream
 = 0.1637    (WHEN MIN. R.F.=1)  AT K=   3, I=   2, J=  29

 MAXIMUM STEPSIZE WHICH MEETS STABILITY CRITERION OF THE ADVECTION TERM
 (FOR PURE FINITE-DIFFERENCE OPTION, MIXELM=0) 
 = 0.1135    (WHEN MIN. R.F.=1)  AT K=   3, I=   2, J=  28
=======
 = 0.1873    (WHEN MIN. R.F.=1)  AT K=   3, I=   2, J=  31

 MAXIMUM STEPSIZE WHICH MEETS STABILITY CRITERION OF THE ADVECTION TERM
 (FOR PURE FINITE-DIFFERENCE OPTION, MIXELM=0) 
 = 0.1250    (WHEN MIN. R.F.=1)  AT K=   3, I=   2, J=  30
>>>>>>> Stashed changes


 TOTAL NUMBER OF POINT SOURCES/SINKS PRESENT IN THE FLOW MODEL =   240

 MAXIMUM STEPSIZE WHICH MEETS STABILITY CRITERION OF THE SINK & SOURCE TERM
 = 0.1000E+31(WHEN MIN. R.F.=1)  AT K=   0, I=   0, J=   0

 MAXIMUM STEPSIZE WHICH MEETS STABILITY CRITERION OF THE DISPERSION TERM
<<<<<<< Updated upstream
 = 0.6210E-02(WHEN MIN. R.F.=1)  AT K=   3, I=   2, J=  31
     1 CALLS TO GCG PACKAGE FOR TRANSPORT TIME STEP   3 IN FLOW TIME STEP   7 STRESS PERIOD   2
    22 TOTAL ITERATIONS
0WARNING: NUMERICAL OSCILLATION ENCOUNTERED
 ONE OR MORE CELL CONCENTRATIONS LESS THAN CRHOREF
 SMALLEST DENSITY =  0.100E+04
 AT CELL (I,J,K) = (   3,  65,  19)
=======
 = 0.6714E-02(WHEN MIN. R.F.=1)  AT K=   3, I=   2, J=  30


     1 CALLS TO GCG PACKAGE FOR TRANSPORT TIME STEP   1 IN FLOW TIME STEP   8 STRESS PERIOD   2
    21 TOTAL ITERATIONS

 OUTPUT CONTROL FOR STRESS PERIOD    2   TIME STEP   8
    SAVE HEAD FOR ALL LAYERS
    SAVE BUDGET
0WARNING: NUMERICAL OSCILLATION ENCOUNTERED
 ONE OR MORE CELL CONCENTRATIONS LESS THAN CRHOREF
 SMALLEST DENSITY =  0.100E+04
 AT CELL (I,J,K) = (   1,  63,  20)
>>>>>>> Stashed changes

 
 SOLVING FOR HEAD 
 FLOW MODEL IS TRANSIENT
 FLOW MODEL CONTAINS CONSTANT-HEAD CELLS


 MAXIMUM STEPSIZE DURING WHICH ANY PARTICLE CANNOT MOVE MORE THAN ONE CELL
<<<<<<< Updated upstream
 = 0.1637    (WHEN MIN. R.F.=1)  AT K=   3, I=   2, J=  29

 MAXIMUM STEPSIZE WHICH MEETS STABILITY CRITERION OF THE ADVECTION TERM
 (FOR PURE FINITE-DIFFERENCE OPTION, MIXELM=0) 
 = 0.1135    (WHEN MIN. R.F.=1)  AT K=   3, I=   2, J=  28
=======
 = 0.1873    (WHEN MIN. R.F.=1)  AT K=   3, I=   2, J=  31

 MAXIMUM STEPSIZE WHICH MEETS STABILITY CRITERION OF THE ADVECTION TERM
 (FOR PURE FINITE-DIFFERENCE OPTION, MIXELM=0) 
 = 0.1250    (WHEN MIN. R.F.=1)  AT K=   3, I=   2, J=  30
>>>>>>> Stashed changes


 TOTAL NUMBER OF POINT SOURCES/SINKS PRESENT IN THE FLOW MODEL =   240

 MAXIMUM STEPSIZE WHICH MEETS STABILITY CRITERION OF THE SINK & SOURCE TERM
 = 0.1000E+31(WHEN MIN. R.F.=1)  AT K=   0, I=   0, J=   0

 MAXIMUM STEPSIZE WHICH MEETS STABILITY CRITERION OF THE DISPERSION TERM
<<<<<<< Updated upstream
 = 0.6210E-02(WHEN MIN. R.F.=1)  AT K=   3, I=   2, J=  31
     1 CALLS TO GCG PACKAGE FOR TRANSPORT TIME STEP   4 IN FLOW TIME STEP   7 STRESS PERIOD   2
    22 TOTAL ITERATIONS
0WARNING: NUMERICAL OSCILLATION ENCOUNTERED
 ONE OR MORE CELL CONCENTRATIONS LESS THAN CRHOREF
 SMALLEST DENSITY =  0.100E+04
 AT CELL (I,J,K) = (   3,  65,  19)
=======
 = 0.6714E-02(WHEN MIN. R.F.=1)  AT K=   3, I=   2, J=  30
     1 CALLS TO GCG PACKAGE FOR TRANSPORT TIME STEP   2 IN FLOW TIME STEP   8 STRESS PERIOD   2
    23 TOTAL ITERATIONS
0WARNING: NUMERICAL OSCILLATION ENCOUNTERED
 ONE OR MORE CELL CONCENTRATIONS LESS THAN CRHOREF
 SMALLEST DENSITY =  0.100E+04
 AT CELL (I,J,K) = (   3,  63,  21)
>>>>>>> Stashed changes

 
 SOLVING FOR HEAD 
 FLOW MODEL IS TRANSIENT
 FLOW MODEL CONTAINS CONSTANT-HEAD CELLS


 MAXIMUM STEPSIZE DURING WHICH ANY PARTICLE CANNOT MOVE MORE THAN ONE CELL
<<<<<<< Updated upstream
 = 0.1637    (WHEN MIN. R.F.=1)  AT K=   3, I=   2, J=  29

 MAXIMUM STEPSIZE WHICH MEETS STABILITY CRITERION OF THE ADVECTION TERM
 (FOR PURE FINITE-DIFFERENCE OPTION, MIXELM=0) 
 = 0.1135    (WHEN MIN. R.F.=1)  AT K=   3, I=   2, J=  28
=======
 = 0.1873    (WHEN MIN. R.F.=1)  AT K=   3, I=   2, J=  31

 MAXIMUM STEPSIZE WHICH MEETS STABILITY CRITERION OF THE ADVECTION TERM
 (FOR PURE FINITE-DIFFERENCE OPTION, MIXELM=0) 
 = 0.1250    (WHEN MIN. R.F.=1)  AT K=   3, I=   2, J=  30
>>>>>>> Stashed changes


 TOTAL NUMBER OF POINT SOURCES/SINKS PRESENT IN THE FLOW MODEL =   240

 MAXIMUM STEPSIZE WHICH MEETS STABILITY CRITERION OF THE SINK & SOURCE TERM
 = 0.1000E+31(WHEN MIN. R.F.=1)  AT K=   0, I=   0, J=   0

 MAXIMUM STEPSIZE WHICH MEETS STABILITY CRITERION OF THE DISPERSION TERM
<<<<<<< Updated upstream
 = 0.6210E-02(WHEN MIN. R.F.=1)  AT K=   3, I=   2, J=  31
     1 CALLS TO GCG PACKAGE FOR TRANSPORT TIME STEP   5 IN FLOW TIME STEP   7 STRESS PERIOD   2
    22 TOTAL ITERATIONS
0WARNING: NUMERICAL OSCILLATION ENCOUNTERED
 ONE OR MORE CELL CONCENTRATIONS LESS THAN CRHOREF
 SMALLEST DENSITY =  0.100E+04
 AT CELL (I,J,K) = (   3,  65,  19)
=======
 = 0.6714E-02(WHEN MIN. R.F.=1)  AT K=   3, I=   2, J=  30
     1 CALLS TO GCG PACKAGE FOR TRANSPORT TIME STEP   3 IN FLOW TIME STEP   8 STRESS PERIOD   2
    21 TOTAL ITERATIONS
0WARNING: NUMERICAL OSCILLATION ENCOUNTERED
 ONE OR MORE CELL CONCENTRATIONS LESS THAN CRHOREF
 SMALLEST DENSITY =  0.100E+04
 AT CELL (I,J,K) = (   3,  63,  21)
>>>>>>> Stashed changes

 
 SOLVING FOR HEAD 
 FLOW MODEL IS TRANSIENT
 FLOW MODEL CONTAINS CONSTANT-HEAD CELLS


 MAXIMUM STEPSIZE DURING WHICH ANY PARTICLE CANNOT MOVE MORE THAN ONE CELL
<<<<<<< Updated upstream
 = 0.1637    (WHEN MIN. R.F.=1)  AT K=   3, I=   2, J=  29

 MAXIMUM STEPSIZE WHICH MEETS STABILITY CRITERION OF THE ADVECTION TERM
 (FOR PURE FINITE-DIFFERENCE OPTION, MIXELM=0) 
 = 0.1135    (WHEN MIN. R.F.=1)  AT K=   3, I=   2, J=  28
=======
 = 0.1873    (WHEN MIN. R.F.=1)  AT K=   3, I=   2, J=  31

 MAXIMUM STEPSIZE WHICH MEETS STABILITY CRITERION OF THE ADVECTION TERM
 (FOR PURE FINITE-DIFFERENCE OPTION, MIXELM=0) 
 = 0.1250    (WHEN MIN. R.F.=1)  AT K=   3, I=   2, J=  30
>>>>>>> Stashed changes


 TOTAL NUMBER OF POINT SOURCES/SINKS PRESENT IN THE FLOW MODEL =   240

 MAXIMUM STEPSIZE WHICH MEETS STABILITY CRITERION OF THE SINK & SOURCE TERM
 = 0.1000E+31(WHEN MIN. R.F.=1)  AT K=   0, I=   0, J=   0

 MAXIMUM STEPSIZE WHICH MEETS STABILITY CRITERION OF THE DISPERSION TERM
<<<<<<< Updated upstream
 = 0.6211E-02(WHEN MIN. R.F.=1)  AT K=   3, I=   2, J=  31
     1 CALLS TO GCG PACKAGE FOR TRANSPORT TIME STEP   6 IN FLOW TIME STEP   7 STRESS PERIOD   2
    22 TOTAL ITERATIONS
0WARNING: NUMERICAL OSCILLATION ENCOUNTERED
 ONE OR MORE CELL CONCENTRATIONS LESS THAN CRHOREF
 SMALLEST DENSITY =  0.100E+04
 AT CELL (I,J,K) = (   3,  64,  20)
=======
 = 0.6715E-02(WHEN MIN. R.F.=1)  AT K=   3, I=   2, J=  30
     1 CALLS TO GCG PACKAGE FOR TRANSPORT TIME STEP   4 IN FLOW TIME STEP   8 STRESS PERIOD   2
    23 TOTAL ITERATIONS
0WARNING: NUMERICAL OSCILLATION ENCOUNTERED
 ONE OR MORE CELL CONCENTRATIONS LESS THAN CRHOREF
 SMALLEST DENSITY =  0.100E+04
 AT CELL (I,J,K) = (   3,  63,  21)
>>>>>>> Stashed changes

 
 SOLVING FOR HEAD 
 FLOW MODEL IS TRANSIENT
 FLOW MODEL CONTAINS CONSTANT-HEAD CELLS


 MAXIMUM STEPSIZE DURING WHICH ANY PARTICLE CANNOT MOVE MORE THAN ONE CELL
<<<<<<< Updated upstream
 = 0.1637    (WHEN MIN. R.F.=1)  AT K=   3, I=   2, J=  29

 MAXIMUM STEPSIZE WHICH MEETS STABILITY CRITERION OF THE ADVECTION TERM
 (FOR PURE FINITE-DIFFERENCE OPTION, MIXELM=0) 
 = 0.1135    (WHEN MIN. R.F.=1)  AT K=   3, I=   2, J=  28
=======
 = 0.1873    (WHEN MIN. R.F.=1)  AT K=   3, I=   2, J=  31

 MAXIMUM STEPSIZE WHICH MEETS STABILITY CRITERION OF THE ADVECTION TERM
 (FOR PURE FINITE-DIFFERENCE OPTION, MIXELM=0) 
 = 0.1251    (WHEN MIN. R.F.=1)  AT K=   3, I=   2, J=  30
>>>>>>> Stashed changes


 TOTAL NUMBER OF POINT SOURCES/SINKS PRESENT IN THE FLOW MODEL =   240

 MAXIMUM STEPSIZE WHICH MEETS STABILITY CRITERION OF THE SINK & SOURCE TERM
 = 0.1000E+31(WHEN MIN. R.F.=1)  AT K=   0, I=   0, J=   0

 MAXIMUM STEPSIZE WHICH MEETS STABILITY CRITERION OF THE DISPERSION TERM
<<<<<<< Updated upstream
 = 0.6211E-02(WHEN MIN. R.F.=1)  AT K=   3, I=   2, J=  31
     1 CALLS TO GCG PACKAGE FOR TRANSPORT TIME STEP   7 IN FLOW TIME STEP   7 STRESS PERIOD   2
    22 TOTAL ITERATIONS
0WARNING: NUMERICAL OSCILLATION ENCOUNTERED
 ONE OR MORE CELL CONCENTRATIONS LESS THAN CRHOREF
 SMALLEST DENSITY =  0.100E+04
 AT CELL (I,J,K) = (   3,  64,  20)
=======
 = 0.6715E-02(WHEN MIN. R.F.=1)  AT K=   3, I=   2, J=  30
     1 CALLS TO GCG PACKAGE FOR TRANSPORT TIME STEP   5 IN FLOW TIME STEP   8 STRESS PERIOD   2
    21 TOTAL ITERATIONS
0WARNING: NUMERICAL OSCILLATION ENCOUNTERED
 ONE OR MORE CELL CONCENTRATIONS LESS THAN CRHOREF
 SMALLEST DENSITY =  0.100E+04
 AT CELL (I,J,K) = (   3,  63,  21)
>>>>>>> Stashed changes

 
 SOLVING FOR HEAD 
 FLOW MODEL IS TRANSIENT
 FLOW MODEL CONTAINS CONSTANT-HEAD CELLS


 MAXIMUM STEPSIZE DURING WHICH ANY PARTICLE CANNOT MOVE MORE THAN ONE CELL
<<<<<<< Updated upstream
 = 0.1637    (WHEN MIN. R.F.=1)  AT K=   3, I=   2, J=  29

 MAXIMUM STEPSIZE WHICH MEETS STABILITY CRITERION OF THE ADVECTION TERM
 (FOR PURE FINITE-DIFFERENCE OPTION, MIXELM=0) 
 = 0.1135    (WHEN MIN. R.F.=1)  AT K=   3, I=   2, J=  28
=======
 = 0.1873    (WHEN MIN. R.F.=1)  AT K=   3, I=   2, J=  31

 MAXIMUM STEPSIZE WHICH MEETS STABILITY CRITERION OF THE ADVECTION TERM
 (FOR PURE FINITE-DIFFERENCE OPTION, MIXELM=0) 
 = 0.1251    (WHEN MIN. R.F.=1)  AT K=   3, I=   2, J=  30
>>>>>>> Stashed changes


 TOTAL NUMBER OF POINT SOURCES/SINKS PRESENT IN THE FLOW MODEL =   240

 MAXIMUM STEPSIZE WHICH MEETS STABILITY CRITERION OF THE SINK & SOURCE TERM
 = 0.1000E+31(WHEN MIN. R.F.=1)  AT K=   0, I=   0, J=   0

 MAXIMUM STEPSIZE WHICH MEETS STABILITY CRITERION OF THE DISPERSION TERM
<<<<<<< Updated upstream
 = 0.6211E-02(WHEN MIN. R.F.=1)  AT K=   3, I=   2, J=  31
     1 CALLS TO GCG PACKAGE FOR TRANSPORT TIME STEP   8 IN FLOW TIME STEP   7 STRESS PERIOD   2
    22 TOTAL ITERATIONS
0WARNING: NUMERICAL OSCILLATION ENCOUNTERED
 ONE OR MORE CELL CONCENTRATIONS LESS THAN CRHOREF
 SMALLEST DENSITY =  0.100E+04
 AT CELL (I,J,K) = (   3,  64,  20)
=======
 = 0.6715E-02(WHEN MIN. R.F.=1)  AT K=   3, I=   2, J=  30
     1 CALLS TO GCG PACKAGE FOR TRANSPORT TIME STEP   6 IN FLOW TIME STEP   8 STRESS PERIOD   2
    23 TOTAL ITERATIONS
0WARNING: NUMERICAL OSCILLATION ENCOUNTERED
 ONE OR MORE CELL CONCENTRATIONS LESS THAN CRHOREF
 SMALLEST DENSITY =  0.100E+04
 AT CELL (I,J,K) = (   3,  63,  21)
>>>>>>> Stashed changes

 
 SOLVING FOR HEAD 
 FLOW MODEL IS TRANSIENT
 FLOW MODEL CONTAINS CONSTANT-HEAD CELLS


 MAXIMUM STEPSIZE DURING WHICH ANY PARTICLE CANNOT MOVE MORE THAN ONE CELL
<<<<<<< Updated upstream
 = 0.1637    (WHEN MIN. R.F.=1)  AT K=   3, I=   2, J=  29

 MAXIMUM STEPSIZE WHICH MEETS STABILITY CRITERION OF THE ADVECTION TERM
 (FOR PURE FINITE-DIFFERENCE OPTION, MIXELM=0) 
 = 0.1135    (WHEN MIN. R.F.=1)  AT K=   3, I=   2, J=  28
=======
 = 0.1873    (WHEN MIN. R.F.=1)  AT K=   3, I=   2, J=  31

 MAXIMUM STEPSIZE WHICH MEETS STABILITY CRITERION OF THE ADVECTION TERM
 (FOR PURE FINITE-DIFFERENCE OPTION, MIXELM=0) 
 = 0.1251    (WHEN MIN. R.F.=1)  AT K=   3, I=   2, J=  30
>>>>>>> Stashed changes


 TOTAL NUMBER OF POINT SOURCES/SINKS PRESENT IN THE FLOW MODEL =   240

 MAXIMUM STEPSIZE WHICH MEETS STABILITY CRITERION OF THE SINK & SOURCE TERM
 = 0.1000E+31(WHEN MIN. R.F.=1)  AT K=   0, I=   0, J=   0

 MAXIMUM STEPSIZE WHICH MEETS STABILITY CRITERION OF THE DISPERSION TERM
<<<<<<< Updated upstream
 = 0.6211E-02(WHEN MIN. R.F.=1)  AT K=   3, I=   2, J=  31
     1 CALLS TO GCG PACKAGE FOR TRANSPORT TIME STEP   9 IN FLOW TIME STEP   7 STRESS PERIOD   2
     9 TOTAL ITERATIONS
  MAXIMUM CONCENTRATION CHANGES FOR EACH ITERATION:
  MAX. CHANGE LAYER,ROW,COL MAX. CHANGE LAYER,ROW,COL MAX. CHANGE LAYER,ROW,COL MAX. CHANGE LAYER,ROW,COL MAX. CHANGE LAYER,ROW,COL
 ------------------------------------------------------------------------------------------------------------------------------------
   0.1015E-02 (  9,  3, 53)  0.1822E-03 (  6,  1, 52)  0.4717E-04 (  4,  2, 42)  0.1731E-04 (  3,  3, 31)  0.7028E-05 (  3,  3, 30)
   0.3279E-05 (  3,  3, 31)  0.7740E-06 (  3,  3, 30)  0.2361E-06 (  3,  3, 29)  0.8617E-07 (  4,  3, 29)
0WARNING: NUMERICAL OSCILLATION ENCOUNTERED
 ONE OR MORE CELL CONCENTRATIONS LESS THAN CRHOREF
 SMALLEST DENSITY =  0.100E+04
 AT CELL (I,J,K) = (   3,  64,  20)



                                          ================================================
                                                         FROM TIME =   8.0000     TO    9.0000    
=======
 = 0.6715E-02(WHEN MIN. R.F.=1)  AT K=   3, I=   2, J=  30
     1 CALLS TO GCG PACKAGE FOR TRANSPORT TIME STEP   7 IN FLOW TIME STEP   8 STRESS PERIOD   2
    23 TOTAL ITERATIONS
0WARNING: NUMERICAL OSCILLATION ENCOUNTERED
 ONE OR MORE CELL CONCENTRATIONS LESS THAN CRHOREF
 SMALLEST DENSITY =  0.100E+04
 AT CELL (I,J,K) = (   3,  63,  21)
>>>>>>> Stashed changes

 
 SOLVING FOR HEAD 
 FLOW MODEL IS TRANSIENT
 FLOW MODEL CONTAINS CONSTANT-HEAD CELLS


 MAXIMUM STEPSIZE DURING WHICH ANY PARTICLE CANNOT MOVE MORE THAN ONE CELL
<<<<<<< Updated upstream
 = 0.1637    (WHEN MIN. R.F.=1)  AT K=   3, I=   2, J=  29

 MAXIMUM STEPSIZE WHICH MEETS STABILITY CRITERION OF THE ADVECTION TERM
 (FOR PURE FINITE-DIFFERENCE OPTION, MIXELM=0) 
 = 0.1135    (WHEN MIN. R.F.=1)  AT K=   3, I=   2, J=  28
=======
 = 0.1873    (WHEN MIN. R.F.=1)  AT K=   3, I=   2, J=  31

 MAXIMUM STEPSIZE WHICH MEETS STABILITY CRITERION OF THE ADVECTION TERM
 (FOR PURE FINITE-DIFFERENCE OPTION, MIXELM=0) 
 = 0.1251    (WHEN MIN. R.F.=1)  AT K=   3, I=   2, J=  30
>>>>>>> Stashed changes


 TOTAL NUMBER OF POINT SOURCES/SINKS PRESENT IN THE FLOW MODEL =   240

 MAXIMUM STEPSIZE WHICH MEETS STABILITY CRITERION OF THE SINK & SOURCE TERM
 = 0.1000E+31(WHEN MIN. R.F.=1)  AT K=   0, I=   0, J=   0

 MAXIMUM STEPSIZE WHICH MEETS STABILITY CRITERION OF THE DISPERSION TERM
<<<<<<< Updated upstream
 = 0.6211E-02(WHEN MIN. R.F.=1)  AT K=   3, I=   2, J=  31


     1 CALLS TO GCG PACKAGE FOR TRANSPORT TIME STEP   1 IN FLOW TIME STEP   8 STRESS PERIOD   2
    22 TOTAL ITERATIONS

 NO OUTPUT CONTROL FOR STRESS PERIOD    2   TIME STEP   8
0WARNING: NUMERICAL OSCILLATION ENCOUNTERED
 ONE OR MORE CELL CONCENTRATIONS LESS THAN CRHOREF
 SMALLEST DENSITY =  0.100E+04
 AT CELL (I,J,K) = (   3,  64,  20)
=======
 = 0.6715E-02(WHEN MIN. R.F.=1)  AT K=   3, I=   2, J=  30
     1 CALLS TO GCG PACKAGE FOR TRANSPORT TIME STEP   8 IN FLOW TIME STEP   8 STRESS PERIOD   2
     8 TOTAL ITERATIONS
  MAXIMUM CONCENTRATION CHANGES FOR EACH ITERATION:
  MAX. CHANGE LAYER,ROW,COL MAX. CHANGE LAYER,ROW,COL MAX. CHANGE LAYER,ROW,COL MAX. CHANGE LAYER,ROW,COL MAX. CHANGE LAYER,ROW,COL
 ------------------------------------------------------------------------------------------------------------------------------------
   0.7835E-03 (  9,  2, 52)  0.1178E-03 (  4,  2, 52)  0.3943E-04 (  4,  2, 42)  0.1505E-04 (  3,  2, 37)  0.3818E-05 (  4,  2, 37)
   0.1083E-05 (  3,  2, 37)  0.2833E-06 (  3,  2, 32)  0.9879E-07 (  3,  2, 38)
 UBDSV1 SAVING "         STORAGE" ON UNIT  53 AT TIME STEP  8, STRESS PERIOD   2
 UBDSV2 SAVING "   CONSTANT HEAD" ON UNIT  53 AT TIME STEP  8, STRESS PERIOD   2
 UBDSV1 SAVING "FLOW RIGHT FACE " ON UNIT  53 AT TIME STEP  8, STRESS PERIOD   2
 UBDSV1 SAVING "FLOW FRONT FACE " ON UNIT  53 AT TIME STEP  8, STRESS PERIOD   2
 UBDSV1 SAVING "FLOW LOWER FACE " ON UNIT  53 AT TIME STEP  8, STRESS PERIOD   2
 UBDSV1 SAVING "            DCDT" ON UNIT  53 AT TIME STEP  8, STRESS PERIOD   2
0WARNING: NUMERICAL OSCILLATION ENCOUNTERED
 ONE OR MORE CELL CONCENTRATIONS LESS THAN CRHOREF
 SMALLEST DENSITY =  0.100E+04
 AT CELL (I,J,K) = (   3,  64,  21)


 HEAD WILL BE SAVED ON UNIT   51 AT END OF TIME STEP   8, STRESS PERIOD    2


                                          ================================================
                                                         FROM TIME =   9.0000     TO    10.000    
>>>>>>> Stashed changes

 
 SOLVING FOR HEAD 
 FLOW MODEL IS TRANSIENT
 FLOW MODEL CONTAINS CONSTANT-HEAD CELLS


 MAXIMUM STEPSIZE DURING WHICH ANY PARTICLE CANNOT MOVE MORE THAN ONE CELL
<<<<<<< Updated upstream
 = 0.1637    (WHEN MIN. R.F.=1)  AT K=   3, I=   2, J=  29

 MAXIMUM STEPSIZE WHICH MEETS STABILITY CRITERION OF THE ADVECTION TERM
 (FOR PURE FINITE-DIFFERENCE OPTION, MIXELM=0) 
 = 0.1135    (WHEN MIN. R.F.=1)  AT K=   3, I=   2, J=  28
=======
 = 0.1873    (WHEN MIN. R.F.=1)  AT K=   3, I=   2, J=  31

 MAXIMUM STEPSIZE WHICH MEETS STABILITY CRITERION OF THE ADVECTION TERM
 (FOR PURE FINITE-DIFFERENCE OPTION, MIXELM=0) 
 = 0.1251    (WHEN MIN. R.F.=1)  AT K=   3, I=   2, J=  30
>>>>>>> Stashed changes


 TOTAL NUMBER OF POINT SOURCES/SINKS PRESENT IN THE FLOW MODEL =   240

 MAXIMUM STEPSIZE WHICH MEETS STABILITY CRITERION OF THE SINK & SOURCE TERM
 = 0.1000E+31(WHEN MIN. R.F.=1)  AT K=   0, I=   0, J=   0

 MAXIMUM STEPSIZE WHICH MEETS STABILITY CRITERION OF THE DISPERSION TERM
<<<<<<< Updated upstream
 = 0.6211E-02(WHEN MIN. R.F.=1)  AT K=   3, I=   2, J=  31
     1 CALLS TO GCG PACKAGE FOR TRANSPORT TIME STEP   2 IN FLOW TIME STEP   8 STRESS PERIOD   2
    22 TOTAL ITERATIONS
0WARNING: NUMERICAL OSCILLATION ENCOUNTERED
 ONE OR MORE CELL CONCENTRATIONS LESS THAN CRHOREF
 SMALLEST DENSITY =  0.100E+04
 AT CELL (I,J,K) = (   3,  64,  20)
=======
 = 0.6715E-02(WHEN MIN. R.F.=1)  AT K=   3, I=   2, J=  30


     1 CALLS TO GCG PACKAGE FOR TRANSPORT TIME STEP   1 IN FLOW TIME STEP   9 STRESS PERIOD   2
    22 TOTAL ITERATIONS

 OUTPUT CONTROL FOR STRESS PERIOD    2   TIME STEP   9
    SAVE HEAD FOR ALL LAYERS
    SAVE BUDGET
0WARNING: NUMERICAL OSCILLATION ENCOUNTERED
 ONE OR MORE CELL CONCENTRATIONS LESS THAN CRHOREF
 SMALLEST DENSITY =  0.100E+04
 AT CELL (I,J,K) = (   3,  64,  21)
>>>>>>> Stashed changes

 
 SOLVING FOR HEAD 
 FLOW MODEL IS TRANSIENT
 FLOW MODEL CONTAINS CONSTANT-HEAD CELLS


 MAXIMUM STEPSIZE DURING WHICH ANY PARTICLE CANNOT MOVE MORE THAN ONE CELL
<<<<<<< Updated upstream
 = 0.1637    (WHEN MIN. R.F.=1)  AT K=   3, I=   2, J=  29

 MAXIMUM STEPSIZE WHICH MEETS STABILITY CRITERION OF THE ADVECTION TERM
 (FOR PURE FINITE-DIFFERENCE OPTION, MIXELM=0) 
 = 0.1135    (WHEN MIN. R.F.=1)  AT K=   3, I=   2, J=  28
=======
 = 0.1873    (WHEN MIN. R.F.=1)  AT K=   3, I=   2, J=  31

 MAXIMUM STEPSIZE WHICH MEETS STABILITY CRITERION OF THE ADVECTION TERM
 (FOR PURE FINITE-DIFFERENCE OPTION, MIXELM=0) 
 = 0.1251    (WHEN MIN. R.F.=1)  AT K=   3, I=   2, J=  30
>>>>>>> Stashed changes


 TOTAL NUMBER OF POINT SOURCES/SINKS PRESENT IN THE FLOW MODEL =   240

 MAXIMUM STEPSIZE WHICH MEETS STABILITY CRITERION OF THE SINK & SOURCE TERM
 = 0.1000E+31(WHEN MIN. R.F.=1)  AT K=   0, I=   0, J=   0

 MAXIMUM STEPSIZE WHICH MEETS STABILITY CRITERION OF THE DISPERSION TERM
<<<<<<< Updated upstream
 = 0.6211E-02(WHEN MIN. R.F.=1)  AT K=   3, I=   2, J=  31
     1 CALLS TO GCG PACKAGE FOR TRANSPORT TIME STEP   3 IN FLOW TIME STEP   8 STRESS PERIOD   2
    21 TOTAL ITERATIONS
0WARNING: NUMERICAL OSCILLATION ENCOUNTERED
 ONE OR MORE CELL CONCENTRATIONS LESS THAN CRHOREF
 SMALLEST DENSITY =  0.100E+04
 AT CELL (I,J,K) = (   3,  64,  20)
=======
 = 0.6715E-02(WHEN MIN. R.F.=1)  AT K=   3, I=   2, J=  30
     1 CALLS TO GCG PACKAGE FOR TRANSPORT TIME STEP   2 IN FLOW TIME STEP   9 STRESS PERIOD   2
    22 TOTAL ITERATIONS
0WARNING: NUMERICAL OSCILLATION ENCOUNTERED
 ONE OR MORE CELL CONCENTRATIONS LESS THAN CRHOREF
 SMALLEST DENSITY =  0.100E+04
 AT CELL (I,J,K) = (   3,  64,  21)
>>>>>>> Stashed changes

 
 SOLVING FOR HEAD 
 FLOW MODEL IS TRANSIENT
 FLOW MODEL CONTAINS CONSTANT-HEAD CELLS


 MAXIMUM STEPSIZE DURING WHICH ANY PARTICLE CANNOT MOVE MORE THAN ONE CELL
<<<<<<< Updated upstream
 = 0.1637    (WHEN MIN. R.F.=1)  AT K=   3, I=   2, J=  29

 MAXIMUM STEPSIZE WHICH MEETS STABILITY CRITERION OF THE ADVECTION TERM
 (FOR PURE FINITE-DIFFERENCE OPTION, MIXELM=0) 
 = 0.1135    (WHEN MIN. R.F.=1)  AT K=   3, I=   2, J=  28
=======
 = 0.1873    (WHEN MIN. R.F.=1)  AT K=   3, I=   2, J=  31

 MAXIMUM STEPSIZE WHICH MEETS STABILITY CRITERION OF THE ADVECTION TERM
 (FOR PURE FINITE-DIFFERENCE OPTION, MIXELM=0) 
 = 0.1251    (WHEN MIN. R.F.=1)  AT K=   3, I=   2, J=  30
>>>>>>> Stashed changes


 TOTAL NUMBER OF POINT SOURCES/SINKS PRESENT IN THE FLOW MODEL =   240

 MAXIMUM STEPSIZE WHICH MEETS STABILITY CRITERION OF THE SINK & SOURCE TERM
 = 0.1000E+31(WHEN MIN. R.F.=1)  AT K=   0, I=   0, J=   0

 MAXIMUM STEPSIZE WHICH MEETS STABILITY CRITERION OF THE DISPERSION TERM
<<<<<<< Updated upstream
 = 0.6211E-02(WHEN MIN. R.F.=1)  AT K=   3, I=   2, J=  31
     1 CALLS TO GCG PACKAGE FOR TRANSPORT TIME STEP   4 IN FLOW TIME STEP   8 STRESS PERIOD   2
    21 TOTAL ITERATIONS
0WARNING: NUMERICAL OSCILLATION ENCOUNTERED
 ONE OR MORE CELL CONCENTRATIONS LESS THAN CRHOREF
 SMALLEST DENSITY =  0.100E+04
 AT CELL (I,J,K) = (   3,  64,  20)
=======
 = 0.6715E-02(WHEN MIN. R.F.=1)  AT K=   3, I=   2, J=  30
     1 CALLS TO GCG PACKAGE FOR TRANSPORT TIME STEP   3 IN FLOW TIME STEP   9 STRESS PERIOD   2
    22 TOTAL ITERATIONS
0WARNING: NUMERICAL OSCILLATION ENCOUNTERED
 ONE OR MORE CELL CONCENTRATIONS LESS THAN CRHOREF
 SMALLEST DENSITY =  0.100E+04
 AT CELL (I,J,K) = (   3,  64,  21)
>>>>>>> Stashed changes

 
 SOLVING FOR HEAD 
 FLOW MODEL IS TRANSIENT
 FLOW MODEL CONTAINS CONSTANT-HEAD CELLS


 MAXIMUM STEPSIZE DURING WHICH ANY PARTICLE CANNOT MOVE MORE THAN ONE CELL
<<<<<<< Updated upstream
 = 0.1637    (WHEN MIN. R.F.=1)  AT K=   3, I=   2, J=  29

 MAXIMUM STEPSIZE WHICH MEETS STABILITY CRITERION OF THE ADVECTION TERM
 (FOR PURE FINITE-DIFFERENCE OPTION, MIXELM=0) 
 = 0.1135    (WHEN MIN. R.F.=1)  AT K=   3, I=   2, J=  28
=======
 = 0.1873    (WHEN MIN. R.F.=1)  AT K=   3, I=   2, J=  31

 MAXIMUM STEPSIZE WHICH MEETS STABILITY CRITERION OF THE ADVECTION TERM
 (FOR PURE FINITE-DIFFERENCE OPTION, MIXELM=0) 
 = 0.1251    (WHEN MIN. R.F.=1)  AT K=   3, I=   2, J=  30
>>>>>>> Stashed changes


 TOTAL NUMBER OF POINT SOURCES/SINKS PRESENT IN THE FLOW MODEL =   240

 MAXIMUM STEPSIZE WHICH MEETS STABILITY CRITERION OF THE SINK & SOURCE TERM
 = 0.1000E+31(WHEN MIN. R.F.=1)  AT K=   0, I=   0, J=   0

 MAXIMUM STEPSIZE WHICH MEETS STABILITY CRITERION OF THE DISPERSION TERM
<<<<<<< Updated upstream
 = 0.6211E-02(WHEN MIN. R.F.=1)  AT K=   3, I=   2, J=  31
     1 CALLS TO GCG PACKAGE FOR TRANSPORT TIME STEP   5 IN FLOW TIME STEP   8 STRESS PERIOD   2
    21 TOTAL ITERATIONS
0WARNING: NUMERICAL OSCILLATION ENCOUNTERED
 ONE OR MORE CELL CONCENTRATIONS LESS THAN CRHOREF
 SMALLEST DENSITY =  0.100E+04
 AT CELL (I,J,K) = (   3,  64,  20)
=======
 = 0.6715E-02(WHEN MIN. R.F.=1)  AT K=   3, I=   2, J=  30
     1 CALLS TO GCG PACKAGE FOR TRANSPORT TIME STEP   4 IN FLOW TIME STEP   9 STRESS PERIOD   2
    22 TOTAL ITERATIONS
0WARNING: NUMERICAL OSCILLATION ENCOUNTERED
 ONE OR MORE CELL CONCENTRATIONS LESS THAN CRHOREF
 SMALLEST DENSITY =  0.100E+04
 AT CELL (I,J,K) = (   3,  64,  21)
>>>>>>> Stashed changes

 
 SOLVING FOR HEAD 
 FLOW MODEL IS TRANSIENT
 FLOW MODEL CONTAINS CONSTANT-HEAD CELLS


 MAXIMUM STEPSIZE DURING WHICH ANY PARTICLE CANNOT MOVE MORE THAN ONE CELL
<<<<<<< Updated upstream
 = 0.1637    (WHEN MIN. R.F.=1)  AT K=   3, I=   2, J=  29

 MAXIMUM STEPSIZE WHICH MEETS STABILITY CRITERION OF THE ADVECTION TERM
 (FOR PURE FINITE-DIFFERENCE OPTION, MIXELM=0) 
 = 0.1135    (WHEN MIN. R.F.=1)  AT K=   3, I=   2, J=  28
=======
 = 0.1873    (WHEN MIN. R.F.=1)  AT K=   3, I=   2, J=  31

 MAXIMUM STEPSIZE WHICH MEETS STABILITY CRITERION OF THE ADVECTION TERM
 (FOR PURE FINITE-DIFFERENCE OPTION, MIXELM=0) 
 = 0.1251    (WHEN MIN. R.F.=1)  AT K=   3, I=   2, J=  30
>>>>>>> Stashed changes


 TOTAL NUMBER OF POINT SOURCES/SINKS PRESENT IN THE FLOW MODEL =   240

 MAXIMUM STEPSIZE WHICH MEETS STABILITY CRITERION OF THE SINK & SOURCE TERM
 = 0.1000E+31(WHEN MIN. R.F.=1)  AT K=   0, I=   0, J=   0

 MAXIMUM STEPSIZE WHICH MEETS STABILITY CRITERION OF THE DISPERSION TERM
<<<<<<< Updated upstream
 = 0.6211E-02(WHEN MIN. R.F.=1)  AT K=   3, I=   2, J=  31
     1 CALLS TO GCG PACKAGE FOR TRANSPORT TIME STEP   6 IN FLOW TIME STEP   8 STRESS PERIOD   2
    21 TOTAL ITERATIONS
0WARNING: NUMERICAL OSCILLATION ENCOUNTERED
 ONE OR MORE CELL CONCENTRATIONS LESS THAN CRHOREF
 SMALLEST DENSITY =  0.100E+04
 AT CELL (I,J,K) = (   3,  64,  20)
=======
 = 0.6715E-02(WHEN MIN. R.F.=1)  AT K=   3, I=   2, J=  30
     1 CALLS TO GCG PACKAGE FOR TRANSPORT TIME STEP   5 IN FLOW TIME STEP   9 STRESS PERIOD   2
    22 TOTAL ITERATIONS
0WARNING: NUMERICAL OSCILLATION ENCOUNTERED
 ONE OR MORE CELL CONCENTRATIONS LESS THAN CRHOREF
 SMALLEST DENSITY =  0.100E+04
 AT CELL (I,J,K) = (   3,  64,  21)
>>>>>>> Stashed changes

 
 SOLVING FOR HEAD 
 FLOW MODEL IS TRANSIENT
 FLOW MODEL CONTAINS CONSTANT-HEAD CELLS


 MAXIMUM STEPSIZE DURING WHICH ANY PARTICLE CANNOT MOVE MORE THAN ONE CELL
<<<<<<< Updated upstream
 = 0.1637    (WHEN MIN. R.F.=1)  AT K=   3, I=   2, J=  29

 MAXIMUM STEPSIZE WHICH MEETS STABILITY CRITERION OF THE ADVECTION TERM
 (FOR PURE FINITE-DIFFERENCE OPTION, MIXELM=0) 
 = 0.1135    (WHEN MIN. R.F.=1)  AT K=   3, I=   2, J=  28
=======
 = 0.1873    (WHEN MIN. R.F.=1)  AT K=   3, I=   2, J=  31

 MAXIMUM STEPSIZE WHICH MEETS STABILITY CRITERION OF THE ADVECTION TERM
 (FOR PURE FINITE-DIFFERENCE OPTION, MIXELM=0) 
 = 0.1251    (WHEN MIN. R.F.=1)  AT K=   3, I=   2, J=  30
>>>>>>> Stashed changes


 TOTAL NUMBER OF POINT SOURCES/SINKS PRESENT IN THE FLOW MODEL =   240

 MAXIMUM STEPSIZE WHICH MEETS STABILITY CRITERION OF THE SINK & SOURCE TERM
 = 0.1000E+31(WHEN MIN. R.F.=1)  AT K=   0, I=   0, J=   0

 MAXIMUM STEPSIZE WHICH MEETS STABILITY CRITERION OF THE DISPERSION TERM
<<<<<<< Updated upstream
 = 0.6212E-02(WHEN MIN. R.F.=1)  AT K=   3, I=   2, J=  31
     1 CALLS TO GCG PACKAGE FOR TRANSPORT TIME STEP   7 IN FLOW TIME STEP   8 STRESS PERIOD   2
    21 TOTAL ITERATIONS
0WARNING: NUMERICAL OSCILLATION ENCOUNTERED
 ONE OR MORE CELL CONCENTRATIONS LESS THAN CRHOREF
 SMALLEST DENSITY =  0.100E+04
 AT CELL (I,J,K) = (   3,  64,  20)
=======
 = 0.6715E-02(WHEN MIN. R.F.=1)  AT K=   3, I=   2, J=  30
     1 CALLS TO GCG PACKAGE FOR TRANSPORT TIME STEP   6 IN FLOW TIME STEP   9 STRESS PERIOD   2
    22 TOTAL ITERATIONS
0WARNING: NUMERICAL OSCILLATION ENCOUNTERED
 ONE OR MORE CELL CONCENTRATIONS LESS THAN CRHOREF
 SMALLEST DENSITY =  0.100E+04
 AT CELL (I,J,K) = (   3,  64,  21)
>>>>>>> Stashed changes

 
 SOLVING FOR HEAD 
 FLOW MODEL IS TRANSIENT
 FLOW MODEL CONTAINS CONSTANT-HEAD CELLS


 MAXIMUM STEPSIZE DURING WHICH ANY PARTICLE CANNOT MOVE MORE THAN ONE CELL
<<<<<<< Updated upstream
 = 0.1637    (WHEN MIN. R.F.=1)  AT K=   3, I=   2, J=  29

 MAXIMUM STEPSIZE WHICH MEETS STABILITY CRITERION OF THE ADVECTION TERM
 (FOR PURE FINITE-DIFFERENCE OPTION, MIXELM=0) 
 = 0.1135    (WHEN MIN. R.F.=1)  AT K=   3, I=   2, J=  28
=======
 = 0.1873    (WHEN MIN. R.F.=1)  AT K=   3, I=   2, J=  31

 MAXIMUM STEPSIZE WHICH MEETS STABILITY CRITERION OF THE ADVECTION TERM
 (FOR PURE FINITE-DIFFERENCE OPTION, MIXELM=0) 
 = 0.1251    (WHEN MIN. R.F.=1)  AT K=   3, I=   2, J=  30
>>>>>>> Stashed changes


 TOTAL NUMBER OF POINT SOURCES/SINKS PRESENT IN THE FLOW MODEL =   240

 MAXIMUM STEPSIZE WHICH MEETS STABILITY CRITERION OF THE SINK & SOURCE TERM
 = 0.1000E+31(WHEN MIN. R.F.=1)  AT K=   0, I=   0, J=   0

 MAXIMUM STEPSIZE WHICH MEETS STABILITY CRITERION OF THE DISPERSION TERM
<<<<<<< Updated upstream
 = 0.6212E-02(WHEN MIN. R.F.=1)  AT K=   3, I=   2, J=  31
     1 CALLS TO GCG PACKAGE FOR TRANSPORT TIME STEP   8 IN FLOW TIME STEP   8 STRESS PERIOD   2
    21 TOTAL ITERATIONS
0WARNING: NUMERICAL OSCILLATION ENCOUNTERED
 ONE OR MORE CELL CONCENTRATIONS LESS THAN CRHOREF
 SMALLEST DENSITY =  0.100E+04
 AT CELL (I,J,K) = (   3,  65,  20)
=======
 = 0.6715E-02(WHEN MIN. R.F.=1)  AT K=   3, I=   2, J=  30
     1 CALLS TO GCG PACKAGE FOR TRANSPORT TIME STEP   7 IN FLOW TIME STEP   9 STRESS PERIOD   2
    22 TOTAL ITERATIONS
0WARNING: NUMERICAL OSCILLATION ENCOUNTERED
 ONE OR MORE CELL CONCENTRATIONS LESS THAN CRHOREF
 SMALLEST DENSITY =  0.100E+04
 AT CELL (I,J,K) = (   3,  64,  21)
>>>>>>> Stashed changes

 
 SOLVING FOR HEAD 
 FLOW MODEL IS TRANSIENT
 FLOW MODEL CONTAINS CONSTANT-HEAD CELLS


 MAXIMUM STEPSIZE DURING WHICH ANY PARTICLE CANNOT MOVE MORE THAN ONE CELL
<<<<<<< Updated upstream
 = 0.1637    (WHEN MIN. R.F.=1)  AT K=   3, I=   2, J=  29

 MAXIMUM STEPSIZE WHICH MEETS STABILITY CRITERION OF THE ADVECTION TERM
 (FOR PURE FINITE-DIFFERENCE OPTION, MIXELM=0) 
 = 0.1135    (WHEN MIN. R.F.=1)  AT K=   3, I=   2, J=  28
=======
 = 0.1873    (WHEN MIN. R.F.=1)  AT K=   3, I=   2, J=  31

 MAXIMUM STEPSIZE WHICH MEETS STABILITY CRITERION OF THE ADVECTION TERM
 (FOR PURE FINITE-DIFFERENCE OPTION, MIXELM=0) 
 = 0.1251    (WHEN MIN. R.F.=1)  AT K=   3, I=   2, J=  30
>>>>>>> Stashed changes


 TOTAL NUMBER OF POINT SOURCES/SINKS PRESENT IN THE FLOW MODEL =   240

 MAXIMUM STEPSIZE WHICH MEETS STABILITY CRITERION OF THE SINK & SOURCE TERM
 = 0.1000E+31(WHEN MIN. R.F.=1)  AT K=   0, I=   0, J=   0

 MAXIMUM STEPSIZE WHICH MEETS STABILITY CRITERION OF THE DISPERSION TERM
<<<<<<< Updated upstream
 = 0.6212E-02(WHEN MIN. R.F.=1)  AT K=   3, I=   2, J=  31
     1 CALLS TO GCG PACKAGE FOR TRANSPORT TIME STEP   9 IN FLOW TIME STEP   8 STRESS PERIOD   2
     9 TOTAL ITERATIONS
  MAXIMUM CONCENTRATION CHANGES FOR EACH ITERATION:
  MAX. CHANGE LAYER,ROW,COL MAX. CHANGE LAYER,ROW,COL MAX. CHANGE LAYER,ROW,COL MAX. CHANGE LAYER,ROW,COL MAX. CHANGE LAYER,ROW,COL
 ------------------------------------------------------------------------------------------------------------------------------------
   0.8878E-03 (  9,  3, 54)  0.1532E-03 (  6,  1, 52)  0.3822E-04 (  4,  2, 42)  0.1423E-04 (  3,  3, 31)  0.5760E-05 (  3,  3, 30)
   0.2650E-05 (  3,  3, 31)  0.6313E-06 (  3,  3, 30)  0.1958E-06 (  3,  3, 29)  0.6987E-07 (  4,  3, 29)
0WARNING: NUMERICAL OSCILLATION ENCOUNTERED
 ONE OR MORE CELL CONCENTRATIONS LESS THAN CRHOREF
 SMALLEST DENSITY =  0.100E+04
 AT CELL (I,J,K) = (   3,  65,  20)
=======
 = 0.6715E-02(WHEN MIN. R.F.=1)  AT K=   3, I=   2, J=  30
     1 CALLS TO GCG PACKAGE FOR TRANSPORT TIME STEP   8 IN FLOW TIME STEP   9 STRESS PERIOD   2
     8 TOTAL ITERATIONS
  MAXIMUM CONCENTRATION CHANGES FOR EACH ITERATION:
  MAX. CHANGE LAYER,ROW,COL MAX. CHANGE LAYER,ROW,COL MAX. CHANGE LAYER,ROW,COL MAX. CHANGE LAYER,ROW,COL MAX. CHANGE LAYER,ROW,COL
 ------------------------------------------------------------------------------------------------------------------------------------
   0.6967E-03 ( 13,  3, 44)  0.1003E-03 (  6,  1, 52)  0.3259E-04 (  4,  2, 42)  0.1235E-04 (  3,  2, 37)  0.3090E-05 (  4,  2, 37)
   0.8972E-06 (  3,  1, 31)  0.2338E-06 (  3,  2, 32)  0.8202E-07 (  3,  2, 41)
 UBDSV1 SAVING "         STORAGE" ON UNIT  53 AT TIME STEP  9, STRESS PERIOD   2
 UBDSV2 SAVING "   CONSTANT HEAD" ON UNIT  53 AT TIME STEP  9, STRESS PERIOD   2
 UBDSV1 SAVING "FLOW RIGHT FACE " ON UNIT  53 AT TIME STEP  9, STRESS PERIOD   2
 UBDSV1 SAVING "FLOW FRONT FACE " ON UNIT  53 AT TIME STEP  9, STRESS PERIOD   2
 UBDSV1 SAVING "FLOW LOWER FACE " ON UNIT  53 AT TIME STEP  9, STRESS PERIOD   2
 UBDSV1 SAVING "            DCDT" ON UNIT  53 AT TIME STEP  9, STRESS PERIOD   2
0WARNING: NUMERICAL OSCILLATION ENCOUNTERED
 ONE OR MORE CELL CONCENTRATIONS LESS THAN CRHOREF
 SMALLEST DENSITY =  0.100E+04
 AT CELL (I,J,K) = (   3,  64,  21)
>>>>>>> Stashed changes


 HEAD WILL BE SAVED ON UNIT   51 AT END OF TIME STEP   9, STRESS PERIOD    2


                                          ================================================
<<<<<<< Updated upstream
                                                         FROM TIME =   9.0000     TO   10.0000    
=======
                                                         FROM TIME =   10.000     TO    11.000    
>>>>>>> Stashed changes

 
 SOLVING FOR HEAD 
 FLOW MODEL IS TRANSIENT
 FLOW MODEL CONTAINS CONSTANT-HEAD CELLS


 MAXIMUM STEPSIZE DURING WHICH ANY PARTICLE CANNOT MOVE MORE THAN ONE CELL
<<<<<<< Updated upstream
 = 0.1637    (WHEN MIN. R.F.=1)  AT K=   3, I=   2, J=  29

 MAXIMUM STEPSIZE WHICH MEETS STABILITY CRITERION OF THE ADVECTION TERM
 (FOR PURE FINITE-DIFFERENCE OPTION, MIXELM=0) 
 = 0.1135    (WHEN MIN. R.F.=1)  AT K=   3, I=   2, J=  28
=======
 = 0.1873    (WHEN MIN. R.F.=1)  AT K=   3, I=   2, J=  31

 MAXIMUM STEPSIZE WHICH MEETS STABILITY CRITERION OF THE ADVECTION TERM
 (FOR PURE FINITE-DIFFERENCE OPTION, MIXELM=0) 
 = 0.1251    (WHEN MIN. R.F.=1)  AT K=   3, I=   2, J=  30
>>>>>>> Stashed changes


 TOTAL NUMBER OF POINT SOURCES/SINKS PRESENT IN THE FLOW MODEL =   240

 MAXIMUM STEPSIZE WHICH MEETS STABILITY CRITERION OF THE SINK & SOURCE TERM
 = 0.1000E+31(WHEN MIN. R.F.=1)  AT K=   0, I=   0, J=   0

 MAXIMUM STEPSIZE WHICH MEETS STABILITY CRITERION OF THE DISPERSION TERM
<<<<<<< Updated upstream
 = 0.6212E-02(WHEN MIN. R.F.=1)  AT K=   3, I=   2, J=  31


     1 CALLS TO GCG PACKAGE FOR TRANSPORT TIME STEP   1 IN FLOW TIME STEP   9 STRESS PERIOD   2
    21 TOTAL ITERATIONS

 NO OUTPUT CONTROL FOR STRESS PERIOD    2   TIME STEP   9
0WARNING: NUMERICAL OSCILLATION ENCOUNTERED
 ONE OR MORE CELL CONCENTRATIONS LESS THAN CRHOREF
 SMALLEST DENSITY =  0.100E+04
 AT CELL (I,J,K) = (   3,  65,  20)
=======
 = 0.6715E-02(WHEN MIN. R.F.=1)  AT K=   3, I=   2, J=  30


     1 CALLS TO GCG PACKAGE FOR TRANSPORT TIME STEP   1 IN FLOW TIME STEP  10 STRESS PERIOD   2
    22 TOTAL ITERATIONS

 OUTPUT CONTROL FOR STRESS PERIOD    2   TIME STEP  10
    SAVE HEAD FOR ALL LAYERS
    SAVE BUDGET
0WARNING: NUMERICAL OSCILLATION ENCOUNTERED
 ONE OR MORE CELL CONCENTRATIONS LESS THAN CRHOREF
 SMALLEST DENSITY =  0.100E+04
 AT CELL (I,J,K) = (   3,  64,  21)
>>>>>>> Stashed changes

 
 SOLVING FOR HEAD 
 FLOW MODEL IS TRANSIENT
 FLOW MODEL CONTAINS CONSTANT-HEAD CELLS


 MAXIMUM STEPSIZE DURING WHICH ANY PARTICLE CANNOT MOVE MORE THAN ONE CELL
<<<<<<< Updated upstream
 = 0.1637    (WHEN MIN. R.F.=1)  AT K=   3, I=   2, J=  29

 MAXIMUM STEPSIZE WHICH MEETS STABILITY CRITERION OF THE ADVECTION TERM
 (FOR PURE FINITE-DIFFERENCE OPTION, MIXELM=0) 
 = 0.1135    (WHEN MIN. R.F.=1)  AT K=   3, I=   2, J=  28
=======
 = 0.1873    (WHEN MIN. R.F.=1)  AT K=   3, I=   2, J=  31

 MAXIMUM STEPSIZE WHICH MEETS STABILITY CRITERION OF THE ADVECTION TERM
 (FOR PURE FINITE-DIFFERENCE OPTION, MIXELM=0) 
 = 0.1251    (WHEN MIN. R.F.=1)  AT K=   3, I=   2, J=  30
>>>>>>> Stashed changes


 TOTAL NUMBER OF POINT SOURCES/SINKS PRESENT IN THE FLOW MODEL =   240

 MAXIMUM STEPSIZE WHICH MEETS STABILITY CRITERION OF THE SINK & SOURCE TERM
 = 0.1000E+31(WHEN MIN. R.F.=1)  AT K=   0, I=   0, J=   0

 MAXIMUM STEPSIZE WHICH MEETS STABILITY CRITERION OF THE DISPERSION TERM
<<<<<<< Updated upstream
 = 0.6212E-02(WHEN MIN. R.F.=1)  AT K=   3, I=   2, J=  31
     1 CALLS TO GCG PACKAGE FOR TRANSPORT TIME STEP   2 IN FLOW TIME STEP   9 STRESS PERIOD   2
    21 TOTAL ITERATIONS
0WARNING: NUMERICAL OSCILLATION ENCOUNTERED
 ONE OR MORE CELL CONCENTRATIONS LESS THAN CRHOREF
 SMALLEST DENSITY =  0.100E+04
 AT CELL (I,J,K) = (   3,  65,  20)
=======
 = 0.6715E-02(WHEN MIN. R.F.=1)  AT K=   3, I=   2, J=  30
     1 CALLS TO GCG PACKAGE FOR TRANSPORT TIME STEP   2 IN FLOW TIME STEP  10 STRESS PERIOD   2
    22 TOTAL ITERATIONS
0WARNING: NUMERICAL OSCILLATION ENCOUNTERED
 ONE OR MORE CELL CONCENTRATIONS LESS THAN CRHOREF
 SMALLEST DENSITY =  0.100E+04
 AT CELL (I,J,K) = (   3,  64,  21)
>>>>>>> Stashed changes

 
 SOLVING FOR HEAD 
 FLOW MODEL IS TRANSIENT
 FLOW MODEL CONTAINS CONSTANT-HEAD CELLS


 MAXIMUM STEPSIZE DURING WHICH ANY PARTICLE CANNOT MOVE MORE THAN ONE CELL
<<<<<<< Updated upstream
 = 0.1637    (WHEN MIN. R.F.=1)  AT K=   3, I=   2, J=  29

 MAXIMUM STEPSIZE WHICH MEETS STABILITY CRITERION OF THE ADVECTION TERM
 (FOR PURE FINITE-DIFFERENCE OPTION, MIXELM=0) 
 = 0.1135    (WHEN MIN. R.F.=1)  AT K=   3, I=   2, J=  28
=======
 = 0.1873    (WHEN MIN. R.F.=1)  AT K=   3, I=   2, J=  31

 MAXIMUM STEPSIZE WHICH MEETS STABILITY CRITERION OF THE ADVECTION TERM
 (FOR PURE FINITE-DIFFERENCE OPTION, MIXELM=0) 
 = 0.1251    (WHEN MIN. R.F.=1)  AT K=   3, I=   2, J=  30
>>>>>>> Stashed changes


 TOTAL NUMBER OF POINT SOURCES/SINKS PRESENT IN THE FLOW MODEL =   240

 MAXIMUM STEPSIZE WHICH MEETS STABILITY CRITERION OF THE SINK & SOURCE TERM
 = 0.1000E+31(WHEN MIN. R.F.=1)  AT K=   0, I=   0, J=   0

 MAXIMUM STEPSIZE WHICH MEETS STABILITY CRITERION OF THE DISPERSION TERM
<<<<<<< Updated upstream
 = 0.6212E-02(WHEN MIN. R.F.=1)  AT K=   3, I=   2, J=  31
     1 CALLS TO GCG PACKAGE FOR TRANSPORT TIME STEP   3 IN FLOW TIME STEP   9 STRESS PERIOD   2
    21 TOTAL ITERATIONS
0WARNING: NUMERICAL OSCILLATION ENCOUNTERED
 ONE OR MORE CELL CONCENTRATIONS LESS THAN CRHOREF
 SMALLEST DENSITY =  0.100E+04
 AT CELL (I,J,K) = (   3,  65,  20)
=======
 = 0.6715E-02(WHEN MIN. R.F.=1)  AT K=   3, I=   2, J=  30
     1 CALLS TO GCG PACKAGE FOR TRANSPORT TIME STEP   3 IN FLOW TIME STEP  10 STRESS PERIOD   2
    22 TOTAL ITERATIONS
0WARNING: NUMERICAL OSCILLATION ENCOUNTERED
 ONE OR MORE CELL CONCENTRATIONS LESS THAN CRHOREF
 SMALLEST DENSITY =  0.100E+04
 AT CELL (I,J,K) = (   3,  64,  21)
>>>>>>> Stashed changes

 
 SOLVING FOR HEAD 
 FLOW MODEL IS TRANSIENT
 FLOW MODEL CONTAINS CONSTANT-HEAD CELLS


 MAXIMUM STEPSIZE DURING WHICH ANY PARTICLE CANNOT MOVE MORE THAN ONE CELL
<<<<<<< Updated upstream
 = 0.1637    (WHEN MIN. R.F.=1)  AT K=   3, I=   2, J=  29

 MAXIMUM STEPSIZE WHICH MEETS STABILITY CRITERION OF THE ADVECTION TERM
 (FOR PURE FINITE-DIFFERENCE OPTION, MIXELM=0) 
 = 0.1135    (WHEN MIN. R.F.=1)  AT K=   3, I=   2, J=  28
=======
 = 0.1873    (WHEN MIN. R.F.=1)  AT K=   3, I=   2, J=  31

 MAXIMUM STEPSIZE WHICH MEETS STABILITY CRITERION OF THE ADVECTION TERM
 (FOR PURE FINITE-DIFFERENCE OPTION, MIXELM=0) 
 = 0.1251    (WHEN MIN. R.F.=1)  AT K=   3, I=   2, J=  30
>>>>>>> Stashed changes


 TOTAL NUMBER OF POINT SOURCES/SINKS PRESENT IN THE FLOW MODEL =   240

 MAXIMUM STEPSIZE WHICH MEETS STABILITY CRITERION OF THE SINK & SOURCE TERM
 = 0.1000E+31(WHEN MIN. R.F.=1)  AT K=   0, I=   0, J=   0

 MAXIMUM STEPSIZE WHICH MEETS STABILITY CRITERION OF THE DISPERSION TERM
<<<<<<< Updated upstream
 = 0.6212E-02(WHEN MIN. R.F.=1)  AT K=   3, I=   2, J=  31
     1 CALLS TO GCG PACKAGE FOR TRANSPORT TIME STEP   4 IN FLOW TIME STEP   9 STRESS PERIOD   2
    21 TOTAL ITERATIONS
0WARNING: NUMERICAL OSCILLATION ENCOUNTERED
 ONE OR MORE CELL CONCENTRATIONS LESS THAN CRHOREF
 SMALLEST DENSITY =  0.100E+04
 AT CELL (I,J,K) = (   3,  65,  20)
=======
 = 0.6715E-02(WHEN MIN. R.F.=1)  AT K=   3, I=   2, J=  30
     1 CALLS TO GCG PACKAGE FOR TRANSPORT TIME STEP   4 IN FLOW TIME STEP  10 STRESS PERIOD   2
    22 TOTAL ITERATIONS
0WARNING: NUMERICAL OSCILLATION ENCOUNTERED
 ONE OR MORE CELL CONCENTRATIONS LESS THAN CRHOREF
 SMALLEST DENSITY =  0.100E+04
 AT CELL (I,J,K) = (   3,  64,  21)
>>>>>>> Stashed changes

 
 SOLVING FOR HEAD 
 FLOW MODEL IS TRANSIENT
 FLOW MODEL CONTAINS CONSTANT-HEAD CELLS


 MAXIMUM STEPSIZE DURING WHICH ANY PARTICLE CANNOT MOVE MORE THAN ONE CELL
<<<<<<< Updated upstream
 = 0.1637    (WHEN MIN. R.F.=1)  AT K=   3, I=   2, J=  29

 MAXIMUM STEPSIZE WHICH MEETS STABILITY CRITERION OF THE ADVECTION TERM
 (FOR PURE FINITE-DIFFERENCE OPTION, MIXELM=0) 
 = 0.1135    (WHEN MIN. R.F.=1)  AT K=   3, I=   2, J=  28
=======
 = 0.1873    (WHEN MIN. R.F.=1)  AT K=   3, I=   2, J=  31

 MAXIMUM STEPSIZE WHICH MEETS STABILITY CRITERION OF THE ADVECTION TERM
 (FOR PURE FINITE-DIFFERENCE OPTION, MIXELM=0) 
 = 0.1251    (WHEN MIN. R.F.=1)  AT K=   3, I=   2, J=  30
>>>>>>> Stashed changes


 TOTAL NUMBER OF POINT SOURCES/SINKS PRESENT IN THE FLOW MODEL =   240

 MAXIMUM STEPSIZE WHICH MEETS STABILITY CRITERION OF THE SINK & SOURCE TERM
 = 0.1000E+31(WHEN MIN. R.F.=1)  AT K=   0, I=   0, J=   0

 MAXIMUM STEPSIZE WHICH MEETS STABILITY CRITERION OF THE DISPERSION TERM
<<<<<<< Updated upstream
 = 0.6212E-02(WHEN MIN. R.F.=1)  AT K=   3, I=   2, J=  31
     1 CALLS TO GCG PACKAGE FOR TRANSPORT TIME STEP   5 IN FLOW TIME STEP   9 STRESS PERIOD   2
    21 TOTAL ITERATIONS
0WARNING: NUMERICAL OSCILLATION ENCOUNTERED
 ONE OR MORE CELL CONCENTRATIONS LESS THAN CRHOREF
 SMALLEST DENSITY =  0.100E+04
 AT CELL (I,J,K) = (   3,  65,  20)
=======
 = 0.6715E-02(WHEN MIN. R.F.=1)  AT K=   3, I=   2, J=  30
     1 CALLS TO GCG PACKAGE FOR TRANSPORT TIME STEP   5 IN FLOW TIME STEP  10 STRESS PERIOD   2
    22 TOTAL ITERATIONS
0WARNING: NUMERICAL OSCILLATION ENCOUNTERED
 ONE OR MORE CELL CONCENTRATIONS LESS THAN CRHOREF
 SMALLEST DENSITY =  0.100E+04
 AT CELL (I,J,K) = (   3,  64,  21)
>>>>>>> Stashed changes

 
 SOLVING FOR HEAD 
 FLOW MODEL IS TRANSIENT
 FLOW MODEL CONTAINS CONSTANT-HEAD CELLS


 MAXIMUM STEPSIZE DURING WHICH ANY PARTICLE CANNOT MOVE MORE THAN ONE CELL
<<<<<<< Updated upstream
 = 0.1637    (WHEN MIN. R.F.=1)  AT K=   3, I=   2, J=  29

 MAXIMUM STEPSIZE WHICH MEETS STABILITY CRITERION OF THE ADVECTION TERM
 (FOR PURE FINITE-DIFFERENCE OPTION, MIXELM=0) 
 = 0.1135    (WHEN MIN. R.F.=1)  AT K=   3, I=   2, J=  28
=======
 = 0.1873    (WHEN MIN. R.F.=1)  AT K=   3, I=   2, J=  31

 MAXIMUM STEPSIZE WHICH MEETS STABILITY CRITERION OF THE ADVECTION TERM
 (FOR PURE FINITE-DIFFERENCE OPTION, MIXELM=0) 
 = 0.1251    (WHEN MIN. R.F.=1)  AT K=   3, I=   2, J=  30
>>>>>>> Stashed changes


 TOTAL NUMBER OF POINT SOURCES/SINKS PRESENT IN THE FLOW MODEL =   240

 MAXIMUM STEPSIZE WHICH MEETS STABILITY CRITERION OF THE SINK & SOURCE TERM
 = 0.1000E+31(WHEN MIN. R.F.=1)  AT K=   0, I=   0, J=   0

 MAXIMUM STEPSIZE WHICH MEETS STABILITY CRITERION OF THE DISPERSION TERM
<<<<<<< Updated upstream
 = 0.6212E-02(WHEN MIN. R.F.=1)  AT K=   3, I=   2, J=  31
     1 CALLS TO GCG PACKAGE FOR TRANSPORT TIME STEP   6 IN FLOW TIME STEP   9 STRESS PERIOD   2
    21 TOTAL ITERATIONS
0WARNING: NUMERICAL OSCILLATION ENCOUNTERED
 ONE OR MORE CELL CONCENTRATIONS LESS THAN CRHOREF
 SMALLEST DENSITY =  0.100E+04
 AT CELL (I,J,K) = (   3,  65,  20)
=======
 = 0.6715E-02(WHEN MIN. R.F.=1)  AT K=   3, I=   2, J=  30
     1 CALLS TO GCG PACKAGE FOR TRANSPORT TIME STEP   6 IN FLOW TIME STEP  10 STRESS PERIOD   2
    22 TOTAL ITERATIONS
0WARNING: NUMERICAL OSCILLATION ENCOUNTERED
 ONE OR MORE CELL CONCENTRATIONS LESS THAN CRHOREF
 SMALLEST DENSITY =  0.100E+04
 AT CELL (I,J,K) = (   3,  64,  21)
>>>>>>> Stashed changes

 
 SOLVING FOR HEAD 
 FLOW MODEL IS TRANSIENT
 FLOW MODEL CONTAINS CONSTANT-HEAD CELLS


 MAXIMUM STEPSIZE DURING WHICH ANY PARTICLE CANNOT MOVE MORE THAN ONE CELL
<<<<<<< Updated upstream
 = 0.1637    (WHEN MIN. R.F.=1)  AT K=   3, I=   2, J=  29

 MAXIMUM STEPSIZE WHICH MEETS STABILITY CRITERION OF THE ADVECTION TERM
 (FOR PURE FINITE-DIFFERENCE OPTION, MIXELM=0) 
 = 0.1135    (WHEN MIN. R.F.=1)  AT K=   3, I=   2, J=  28
=======
 = 0.1873    (WHEN MIN. R.F.=1)  AT K=   3, I=   2, J=  31

 MAXIMUM STEPSIZE WHICH MEETS STABILITY CRITERION OF THE ADVECTION TERM
 (FOR PURE FINITE-DIFFERENCE OPTION, MIXELM=0) 
 = 0.1251    (WHEN MIN. R.F.=1)  AT K=   3, I=   2, J=  30
>>>>>>> Stashed changes


 TOTAL NUMBER OF POINT SOURCES/SINKS PRESENT IN THE FLOW MODEL =   240

 MAXIMUM STEPSIZE WHICH MEETS STABILITY CRITERION OF THE SINK & SOURCE TERM
 = 0.1000E+31(WHEN MIN. R.F.=1)  AT K=   0, I=   0, J=   0

 MAXIMUM STEPSIZE WHICH MEETS STABILITY CRITERION OF THE DISPERSION TERM
<<<<<<< Updated upstream
 = 0.6212E-02(WHEN MIN. R.F.=1)  AT K=   3, I=   2, J=  31
     1 CALLS TO GCG PACKAGE FOR TRANSPORT TIME STEP   7 IN FLOW TIME STEP   9 STRESS PERIOD   2
    21 TOTAL ITERATIONS
0WARNING: NUMERICAL OSCILLATION ENCOUNTERED
 ONE OR MORE CELL CONCENTRATIONS LESS THAN CRHOREF
 SMALLEST DENSITY =  0.100E+04
 AT CELL (I,J,K) = (   3,  65,  20)
=======
 = 0.6715E-02(WHEN MIN. R.F.=1)  AT K=   3, I=   2, J=  30
     1 CALLS TO GCG PACKAGE FOR TRANSPORT TIME STEP   7 IN FLOW TIME STEP  10 STRESS PERIOD   2
    22 TOTAL ITERATIONS
0WARNING: NUMERICAL OSCILLATION ENCOUNTERED
 ONE OR MORE CELL CONCENTRATIONS LESS THAN CRHOREF
 SMALLEST DENSITY =  0.100E+04
 AT CELL (I,J,K) = (   3,  64,  21)
>>>>>>> Stashed changes

 
 SOLVING FOR HEAD 
 FLOW MODEL IS TRANSIENT
 FLOW MODEL CONTAINS CONSTANT-HEAD CELLS


 MAXIMUM STEPSIZE DURING WHICH ANY PARTICLE CANNOT MOVE MORE THAN ONE CELL
<<<<<<< Updated upstream
 = 0.1637    (WHEN MIN. R.F.=1)  AT K=   3, I=   2, J=  29

 MAXIMUM STEPSIZE WHICH MEETS STABILITY CRITERION OF THE ADVECTION TERM
 (FOR PURE FINITE-DIFFERENCE OPTION, MIXELM=0) 
 = 0.1135    (WHEN MIN. R.F.=1)  AT K=   3, I=   2, J=  28
=======
 = 0.1873    (WHEN MIN. R.F.=1)  AT K=   3, I=   2, J=  31

 MAXIMUM STEPSIZE WHICH MEETS STABILITY CRITERION OF THE ADVECTION TERM
 (FOR PURE FINITE-DIFFERENCE OPTION, MIXELM=0) 
 = 0.1251    (WHEN MIN. R.F.=1)  AT K=   3, I=   2, J=  30
>>>>>>> Stashed changes


 TOTAL NUMBER OF POINT SOURCES/SINKS PRESENT IN THE FLOW MODEL =   240

 MAXIMUM STEPSIZE WHICH MEETS STABILITY CRITERION OF THE SINK & SOURCE TERM
 = 0.1000E+31(WHEN MIN. R.F.=1)  AT K=   0, I=   0, J=   0

 MAXIMUM STEPSIZE WHICH MEETS STABILITY CRITERION OF THE DISPERSION TERM
<<<<<<< Updated upstream
 = 0.6212E-02(WHEN MIN. R.F.=1)  AT K=   3, I=   2, J=  31
     1 CALLS TO GCG PACKAGE FOR TRANSPORT TIME STEP   8 IN FLOW TIME STEP   9 STRESS PERIOD   2
    21 TOTAL ITERATIONS
0WARNING: NUMERICAL OSCILLATION ENCOUNTERED
 ONE OR MORE CELL CONCENTRATIONS LESS THAN CRHOREF
 SMALLEST DENSITY =  0.100E+04
 AT CELL (I,J,K) = (   3,  65,  20)
=======
 = 0.6715E-02(WHEN MIN. R.F.=1)  AT K=   3, I=   2, J=  30
     1 CALLS TO GCG PACKAGE FOR TRANSPORT TIME STEP   8 IN FLOW TIME STEP  10 STRESS PERIOD   2
     8 TOTAL ITERATIONS
  MAXIMUM CONCENTRATION CHANGES FOR EACH ITERATION:
  MAX. CHANGE LAYER,ROW,COL MAX. CHANGE LAYER,ROW,COL MAX. CHANGE LAYER,ROW,COL MAX. CHANGE LAYER,ROW,COL MAX. CHANGE LAYER,ROW,COL
 ------------------------------------------------------------------------------------------------------------------------------------
   0.6557E-03 ( 13,  3, 45)  0.8806E-04 (  6,  1, 52)  0.2755E-04 (  4,  2, 43)  0.1036E-04 (  3,  2, 37)  0.2565E-05 (  4,  2, 37)
   0.7673E-06 (  3,  1, 31)  0.1959E-06 (  3,  2, 32)  0.7005E-07 (  3,  2, 41)
 UBDSV1 SAVING "         STORAGE" ON UNIT  53 AT TIME STEP 10, STRESS PERIOD   2
 UBDSV2 SAVING "   CONSTANT HEAD" ON UNIT  53 AT TIME STEP 10, STRESS PERIOD   2
 UBDSV1 SAVING "FLOW RIGHT FACE " ON UNIT  53 AT TIME STEP 10, STRESS PERIOD   2
 UBDSV1 SAVING "FLOW FRONT FACE " ON UNIT  53 AT TIME STEP 10, STRESS PERIOD   2
 UBDSV1 SAVING "FLOW LOWER FACE " ON UNIT  53 AT TIME STEP 10, STRESS PERIOD   2
 UBDSV1 SAVING "            DCDT" ON UNIT  53 AT TIME STEP 10, STRESS PERIOD   2
0WARNING: NUMERICAL OSCILLATION ENCOUNTERED
 ONE OR MORE CELL CONCENTRATIONS LESS THAN CRHOREF
 SMALLEST DENSITY =  0.100E+04
 AT CELL (I,J,K) = (   3,  64,  21)


 HEAD WILL BE SAVED ON UNIT   51 AT END OF TIME STEP  10, STRESS PERIOD    2


                                          ================================================
                                                         FROM TIME =   11.000     TO    12.000    
>>>>>>> Stashed changes

 
 SOLVING FOR HEAD 
 FLOW MODEL IS TRANSIENT
 FLOW MODEL CONTAINS CONSTANT-HEAD CELLS


 MAXIMUM STEPSIZE DURING WHICH ANY PARTICLE CANNOT MOVE MORE THAN ONE CELL
<<<<<<< Updated upstream
 = 0.1637    (WHEN MIN. R.F.=1)  AT K=   3, I=   2, J=  29

 MAXIMUM STEPSIZE WHICH MEETS STABILITY CRITERION OF THE ADVECTION TERM
 (FOR PURE FINITE-DIFFERENCE OPTION, MIXELM=0) 
 = 0.1135    (WHEN MIN. R.F.=1)  AT K=   3, I=   2, J=  28
=======
 = 0.1873    (WHEN MIN. R.F.=1)  AT K=   3, I=   2, J=  31

 MAXIMUM STEPSIZE WHICH MEETS STABILITY CRITERION OF THE ADVECTION TERM
 (FOR PURE FINITE-DIFFERENCE OPTION, MIXELM=0) 
 = 0.1251    (WHEN MIN. R.F.=1)  AT K=   3, I=   2, J=  30
>>>>>>> Stashed changes


 TOTAL NUMBER OF POINT SOURCES/SINKS PRESENT IN THE FLOW MODEL =   240

 MAXIMUM STEPSIZE WHICH MEETS STABILITY CRITERION OF THE SINK & SOURCE TERM
 = 0.1000E+31(WHEN MIN. R.F.=1)  AT K=   0, I=   0, J=   0

 MAXIMUM STEPSIZE WHICH MEETS STABILITY CRITERION OF THE DISPERSION TERM
<<<<<<< Updated upstream
 = 0.6212E-02(WHEN MIN. R.F.=1)  AT K=   3, I=   2, J=  31
     1 CALLS TO GCG PACKAGE FOR TRANSPORT TIME STEP   9 IN FLOW TIME STEP   9 STRESS PERIOD   2
     9 TOTAL ITERATIONS
  MAXIMUM CONCENTRATION CHANGES FOR EACH ITERATION:
  MAX. CHANGE LAYER,ROW,COL MAX. CHANGE LAYER,ROW,COL MAX. CHANGE LAYER,ROW,COL MAX. CHANGE LAYER,ROW,COL MAX. CHANGE LAYER,ROW,COL
 ------------------------------------------------------------------------------------------------------------------------------------
   0.7876E-03 (  9,  3, 54)  0.1311E-03 (  6,  1, 53)  0.3177E-04 (  4,  2, 42)  0.1200E-04 (  3,  3, 31)  0.4838E-05 (  3,  3, 30)
   0.2219E-05 (  3,  3, 31)  0.5319E-06 (  3,  3, 30)  0.1654E-06 (  3,  3, 29)  0.5832E-07 (  4,  3, 29)
0WARNING: NUMERICAL OSCILLATION ENCOUNTERED
 ONE OR MORE CELL CONCENTRATIONS LESS THAN CRHOREF
 SMALLEST DENSITY =  0.100E+04
 AT CELL (I,J,K) = (   3,  65,  20)



                                          ================================================
                                                         FROM TIME =  10.0000     TO    11.000    
=======
 = 0.6715E-02(WHEN MIN. R.F.=1)  AT K=   3, I=   2, J=  30


     1 CALLS TO GCG PACKAGE FOR TRANSPORT TIME STEP   1 IN FLOW TIME STEP  11 STRESS PERIOD   2
    22 TOTAL ITERATIONS

 OUTPUT CONTROL FOR STRESS PERIOD    2   TIME STEP  11
    SAVE HEAD FOR ALL LAYERS
    SAVE BUDGET
0WARNING: NUMERICAL OSCILLATION ENCOUNTERED
 ONE OR MORE CELL CONCENTRATIONS LESS THAN CRHOREF
 SMALLEST DENSITY =  0.100E+04
 AT CELL (I,J,K) = (   3,  64,  21)
>>>>>>> Stashed changes

 
 SOLVING FOR HEAD 
 FLOW MODEL IS TRANSIENT
 FLOW MODEL CONTAINS CONSTANT-HEAD CELLS


 MAXIMUM STEPSIZE DURING WHICH ANY PARTICLE CANNOT MOVE MORE THAN ONE CELL
<<<<<<< Updated upstream
 = 0.1637    (WHEN MIN. R.F.=1)  AT K=   3, I=   2, J=  29

 MAXIMUM STEPSIZE WHICH MEETS STABILITY CRITERION OF THE ADVECTION TERM
 (FOR PURE FINITE-DIFFERENCE OPTION, MIXELM=0) 
 = 0.1135    (WHEN MIN. R.F.=1)  AT K=   3, I=   2, J=  28
=======
 = 0.1873    (WHEN MIN. R.F.=1)  AT K=   3, I=   2, J=  31

 MAXIMUM STEPSIZE WHICH MEETS STABILITY CRITERION OF THE ADVECTION TERM
 (FOR PURE FINITE-DIFFERENCE OPTION, MIXELM=0) 
 = 0.1251    (WHEN MIN. R.F.=1)  AT K=   3, I=   2, J=  30
>>>>>>> Stashed changes


 TOTAL NUMBER OF POINT SOURCES/SINKS PRESENT IN THE FLOW MODEL =   240

 MAXIMUM STEPSIZE WHICH MEETS STABILITY CRITERION OF THE SINK & SOURCE TERM
 = 0.1000E+31(WHEN MIN. R.F.=1)  AT K=   0, I=   0, J=   0

 MAXIMUM STEPSIZE WHICH MEETS STABILITY CRITERION OF THE DISPERSION TERM
<<<<<<< Updated upstream
 = 0.6212E-02(WHEN MIN. R.F.=1)  AT K=   3, I=   2, J=  31


     1 CALLS TO GCG PACKAGE FOR TRANSPORT TIME STEP   1 IN FLOW TIME STEP  10 STRESS PERIOD   2
    21 TOTAL ITERATIONS

 NO OUTPUT CONTROL FOR STRESS PERIOD    2   TIME STEP  10
0WARNING: NUMERICAL OSCILLATION ENCOUNTERED
 ONE OR MORE CELL CONCENTRATIONS LESS THAN CRHOREF
 SMALLEST DENSITY =  0.100E+04
 AT CELL (I,J,K) = (   3,  65,  20)
=======
 = 0.6715E-02(WHEN MIN. R.F.=1)  AT K=   3, I=   2, J=  30
     1 CALLS TO GCG PACKAGE FOR TRANSPORT TIME STEP   2 IN FLOW TIME STEP  11 STRESS PERIOD   2
    22 TOTAL ITERATIONS
0WARNING: NUMERICAL OSCILLATION ENCOUNTERED
 ONE OR MORE CELL CONCENTRATIONS LESS THAN CRHOREF
 SMALLEST DENSITY =  0.100E+04
 AT CELL (I,J,K) = (   3,  64,  21)
>>>>>>> Stashed changes

 
 SOLVING FOR HEAD 
 FLOW MODEL IS TRANSIENT
 FLOW MODEL CONTAINS CONSTANT-HEAD CELLS


 MAXIMUM STEPSIZE DURING WHICH ANY PARTICLE CANNOT MOVE MORE THAN ONE CELL
<<<<<<< Updated upstream
 = 0.1637    (WHEN MIN. R.F.=1)  AT K=   3, I=   2, J=  29

 MAXIMUM STEPSIZE WHICH MEETS STABILITY CRITERION OF THE ADVECTION TERM
 (FOR PURE FINITE-DIFFERENCE OPTION, MIXELM=0) 
 = 0.1135    (WHEN MIN. R.F.=1)  AT K=   3, I=   2, J=  28
=======
 = 0.1873    (WHEN MIN. R.F.=1)  AT K=   3, I=   2, J=  31

 MAXIMUM STEPSIZE WHICH MEETS STABILITY CRITERION OF THE ADVECTION TERM
 (FOR PURE FINITE-DIFFERENCE OPTION, MIXELM=0) 
 = 0.1251    (WHEN MIN. R.F.=1)  AT K=   3, I=   2, J=  30
>>>>>>> Stashed changes


 TOTAL NUMBER OF POINT SOURCES/SINKS PRESENT IN THE FLOW MODEL =   240

 MAXIMUM STEPSIZE WHICH MEETS STABILITY CRITERION OF THE SINK & SOURCE TERM
 = 0.1000E+31(WHEN MIN. R.F.=1)  AT K=   0, I=   0, J=   0

 MAXIMUM STEPSIZE WHICH MEETS STABILITY CRITERION OF THE DISPERSION TERM
<<<<<<< Updated upstream
 = 0.6212E-02(WHEN MIN. R.F.=1)  AT K=   3, I=   2, J=  31
     1 CALLS TO GCG PACKAGE FOR TRANSPORT TIME STEP   2 IN FLOW TIME STEP  10 STRESS PERIOD   2
    21 TOTAL ITERATIONS
0WARNING: NUMERICAL OSCILLATION ENCOUNTERED
 ONE OR MORE CELL CONCENTRATIONS LESS THAN CRHOREF
 SMALLEST DENSITY =  0.100E+04
 AT CELL (I,J,K) = (   3,  65,  20)
=======
 = 0.6715E-02(WHEN MIN. R.F.=1)  AT K=   3, I=   2, J=  30
     1 CALLS TO GCG PACKAGE FOR TRANSPORT TIME STEP   3 IN FLOW TIME STEP  11 STRESS PERIOD   2
    22 TOTAL ITERATIONS
0WARNING: NUMERICAL OSCILLATION ENCOUNTERED
 ONE OR MORE CELL CONCENTRATIONS LESS THAN CRHOREF
 SMALLEST DENSITY =  0.100E+04
 AT CELL (I,J,K) = (   3,  64,  21)
>>>>>>> Stashed changes

 
 SOLVING FOR HEAD 
 FLOW MODEL IS TRANSIENT
 FLOW MODEL CONTAINS CONSTANT-HEAD CELLS


 MAXIMUM STEPSIZE DURING WHICH ANY PARTICLE CANNOT MOVE MORE THAN ONE CELL
<<<<<<< Updated upstream
 = 0.1637    (WHEN MIN. R.F.=1)  AT K=   3, I=   2, J=  29

 MAXIMUM STEPSIZE WHICH MEETS STABILITY CRITERION OF THE ADVECTION TERM
 (FOR PURE FINITE-DIFFERENCE OPTION, MIXELM=0) 
 = 0.1135    (WHEN MIN. R.F.=1)  AT K=   3, I=   2, J=  28
=======
 = 0.1873    (WHEN MIN. R.F.=1)  AT K=   3, I=   2, J=  31

 MAXIMUM STEPSIZE WHICH MEETS STABILITY CRITERION OF THE ADVECTION TERM
 (FOR PURE FINITE-DIFFERENCE OPTION, MIXELM=0) 
 = 0.1251    (WHEN MIN. R.F.=1)  AT K=   3, I=   2, J=  30
>>>>>>> Stashed changes


 TOTAL NUMBER OF POINT SOURCES/SINKS PRESENT IN THE FLOW MODEL =   240

 MAXIMUM STEPSIZE WHICH MEETS STABILITY CRITERION OF THE SINK & SOURCE TERM
 = 0.1000E+31(WHEN MIN. R.F.=1)  AT K=   0, I=   0, J=   0

 MAXIMUM STEPSIZE WHICH MEETS STABILITY CRITERION OF THE DISPERSION TERM
<<<<<<< Updated upstream
 = 0.6212E-02(WHEN MIN. R.F.=1)  AT K=   3, I=   2, J=  31
     1 CALLS TO GCG PACKAGE FOR TRANSPORT TIME STEP   3 IN FLOW TIME STEP  10 STRESS PERIOD   2
    21 TOTAL ITERATIONS
0WARNING: NUMERICAL OSCILLATION ENCOUNTERED
 ONE OR MORE CELL CONCENTRATIONS LESS THAN CRHOREF
 SMALLEST DENSITY =  0.100E+04
 AT CELL (I,J,K) = (   3,  65,  20)
=======
 = 0.6715E-02(WHEN MIN. R.F.=1)  AT K=   3, I=   2, J=  30
     1 CALLS TO GCG PACKAGE FOR TRANSPORT TIME STEP   4 IN FLOW TIME STEP  11 STRESS PERIOD   2
    22 TOTAL ITERATIONS
0WARNING: NUMERICAL OSCILLATION ENCOUNTERED
 ONE OR MORE CELL CONCENTRATIONS LESS THAN CRHOREF
 SMALLEST DENSITY =  0.100E+04
 AT CELL (I,J,K) = (   3,  65,  21)
>>>>>>> Stashed changes

 
 SOLVING FOR HEAD 
 FLOW MODEL IS TRANSIENT
 FLOW MODEL CONTAINS CONSTANT-HEAD CELLS


 MAXIMUM STEPSIZE DURING WHICH ANY PARTICLE CANNOT MOVE MORE THAN ONE CELL
<<<<<<< Updated upstream
 = 0.1637    (WHEN MIN. R.F.=1)  AT K=   3, I=   2, J=  29

 MAXIMUM STEPSIZE WHICH MEETS STABILITY CRITERION OF THE ADVECTION TERM
 (FOR PURE FINITE-DIFFERENCE OPTION, MIXELM=0) 
 = 0.1135    (WHEN MIN. R.F.=1)  AT K=   3, I=   2, J=  28
=======
 = 0.1873    (WHEN MIN. R.F.=1)  AT K=   3, I=   2, J=  31

 MAXIMUM STEPSIZE WHICH MEETS STABILITY CRITERION OF THE ADVECTION TERM
 (FOR PURE FINITE-DIFFERENCE OPTION, MIXELM=0) 
 = 0.1251    (WHEN MIN. R.F.=1)  AT K=   3, I=   2, J=  30
>>>>>>> Stashed changes


 TOTAL NUMBER OF POINT SOURCES/SINKS PRESENT IN THE FLOW MODEL =   240

 MAXIMUM STEPSIZE WHICH MEETS STABILITY CRITERION OF THE SINK & SOURCE TERM
 = 0.1000E+31(WHEN MIN. R.F.=1)  AT K=   0, I=   0, J=   0

 MAXIMUM STEPSIZE WHICH MEETS STABILITY CRITERION OF THE DISPERSION TERM
<<<<<<< Updated upstream
 = 0.6212E-02(WHEN MIN. R.F.=1)  AT K=   3, I=   2, J=  31
     1 CALLS TO GCG PACKAGE FOR TRANSPORT TIME STEP   4 IN FLOW TIME STEP  10 STRESS PERIOD   2
    21 TOTAL ITERATIONS
0WARNING: NUMERICAL OSCILLATION ENCOUNTERED
 ONE OR MORE CELL CONCENTRATIONS LESS THAN CRHOREF
 SMALLEST DENSITY =  0.100E+04
 AT CELL (I,J,K) = (   3,  65,  20)
=======
 = 0.6715E-02(WHEN MIN. R.F.=1)  AT K=   3, I=   2, J=  30
     1 CALLS TO GCG PACKAGE FOR TRANSPORT TIME STEP   5 IN FLOW TIME STEP  11 STRESS PERIOD   2
    22 TOTAL ITERATIONS
0WARNING: NUMERICAL OSCILLATION ENCOUNTERED
 ONE OR MORE CELL CONCENTRATIONS LESS THAN CRHOREF
 SMALLEST DENSITY =  0.100E+04
 AT CELL (I,J,K) = (   3,  65,  21)
>>>>>>> Stashed changes

 
 SOLVING FOR HEAD 
 FLOW MODEL IS TRANSIENT
 FLOW MODEL CONTAINS CONSTANT-HEAD CELLS


 MAXIMUM STEPSIZE DURING WHICH ANY PARTICLE CANNOT MOVE MORE THAN ONE CELL
<<<<<<< Updated upstream
 = 0.1637    (WHEN MIN. R.F.=1)  AT K=   3, I=   2, J=  29

 MAXIMUM STEPSIZE WHICH MEETS STABILITY CRITERION OF THE ADVECTION TERM
 (FOR PURE FINITE-DIFFERENCE OPTION, MIXELM=0) 
 = 0.1135    (WHEN MIN. R.F.=1)  AT K=   3, I=   2, J=  28
=======
 = 0.1873    (WHEN MIN. R.F.=1)  AT K=   3, I=   2, J=  31

 MAXIMUM STEPSIZE WHICH MEETS STABILITY CRITERION OF THE ADVECTION TERM
 (FOR PURE FINITE-DIFFERENCE OPTION, MIXELM=0) 
 = 0.1251    (WHEN MIN. R.F.=1)  AT K=   3, I=   2, J=  30
>>>>>>> Stashed changes


 TOTAL NUMBER OF POINT SOURCES/SINKS PRESENT IN THE FLOW MODEL =   240

 MAXIMUM STEPSIZE WHICH MEETS STABILITY CRITERION OF THE SINK & SOURCE TERM
 = 0.1000E+31(WHEN MIN. R.F.=1)  AT K=   0, I=   0, J=   0

 MAXIMUM STEPSIZE WHICH MEETS STABILITY CRITERION OF THE DISPERSION TERM
<<<<<<< Updated upstream
 = 0.6212E-02(WHEN MIN. R.F.=1)  AT K=   3, I=   2, J=  31
     1 CALLS TO GCG PACKAGE FOR TRANSPORT TIME STEP   5 IN FLOW TIME STEP  10 STRESS PERIOD   2
    21 TOTAL ITERATIONS
0WARNING: NUMERICAL OSCILLATION ENCOUNTERED
 ONE OR MORE CELL CONCENTRATIONS LESS THAN CRHOREF
 SMALLEST DENSITY =  0.100E+04
 AT CELL (I,J,K) = (   3,  65,  20)
=======
 = 0.6715E-02(WHEN MIN. R.F.=1)  AT K=   3, I=   2, J=  30
     1 CALLS TO GCG PACKAGE FOR TRANSPORT TIME STEP   6 IN FLOW TIME STEP  11 STRESS PERIOD   2
    22 TOTAL ITERATIONS
0WARNING: NUMERICAL OSCILLATION ENCOUNTERED
 ONE OR MORE CELL CONCENTRATIONS LESS THAN CRHOREF
 SMALLEST DENSITY =  0.100E+04
 AT CELL (I,J,K) = (   3,  65,  21)
>>>>>>> Stashed changes

 
 SOLVING FOR HEAD 
 FLOW MODEL IS TRANSIENT
 FLOW MODEL CONTAINS CONSTANT-HEAD CELLS


 MAXIMUM STEPSIZE DURING WHICH ANY PARTICLE CANNOT MOVE MORE THAN ONE CELL
<<<<<<< Updated upstream
 = 0.1637    (WHEN MIN. R.F.=1)  AT K=   3, I=   2, J=  29

 MAXIMUM STEPSIZE WHICH MEETS STABILITY CRITERION OF THE ADVECTION TERM
 (FOR PURE FINITE-DIFFERENCE OPTION, MIXELM=0) 
 = 0.1135    (WHEN MIN. R.F.=1)  AT K=   3, I=   2, J=  28
=======
 = 0.1873    (WHEN MIN. R.F.=1)  AT K=   3, I=   2, J=  31

 MAXIMUM STEPSIZE WHICH MEETS STABILITY CRITERION OF THE ADVECTION TERM
 (FOR PURE FINITE-DIFFERENCE OPTION, MIXELM=0) 
 = 0.1251    (WHEN MIN. R.F.=1)  AT K=   3, I=   2, J=  30
>>>>>>> Stashed changes


 TOTAL NUMBER OF POINT SOURCES/SINKS PRESENT IN THE FLOW MODEL =   240

 MAXIMUM STEPSIZE WHICH MEETS STABILITY CRITERION OF THE SINK & SOURCE TERM
 = 0.1000E+31(WHEN MIN. R.F.=1)  AT K=   0, I=   0, J=   0

 MAXIMUM STEPSIZE WHICH MEETS STABILITY CRITERION OF THE DISPERSION TERM
<<<<<<< Updated upstream
 = 0.6212E-02(WHEN MIN. R.F.=1)  AT K=   3, I=   2, J=  31
     1 CALLS TO GCG PACKAGE FOR TRANSPORT TIME STEP   6 IN FLOW TIME STEP  10 STRESS PERIOD   2
    21 TOTAL ITERATIONS
0WARNING: NUMERICAL OSCILLATION ENCOUNTERED
 ONE OR MORE CELL CONCENTRATIONS LESS THAN CRHOREF
 SMALLEST DENSITY =  0.100E+04
 AT CELL (I,J,K) = (   3,  65,  20)
=======
 = 0.6715E-02(WHEN MIN. R.F.=1)  AT K=   3, I=   2, J=  30
     1 CALLS TO GCG PACKAGE FOR TRANSPORT TIME STEP   7 IN FLOW TIME STEP  11 STRESS PERIOD   2
    22 TOTAL ITERATIONS
0WARNING: NUMERICAL OSCILLATION ENCOUNTERED
 ONE OR MORE CELL CONCENTRATIONS LESS THAN CRHOREF
 SMALLEST DENSITY =  0.100E+04
 AT CELL (I,J,K) = (   3,  65,  21)
>>>>>>> Stashed changes

 
 SOLVING FOR HEAD 
 FLOW MODEL IS TRANSIENT
 FLOW MODEL CONTAINS CONSTANT-HEAD CELLS


 MAXIMUM STEPSIZE DURING WHICH ANY PARTICLE CANNOT MOVE MORE THAN ONE CELL
<<<<<<< Updated upstream
 = 0.1637    (WHEN MIN. R.F.=1)  AT K=   3, I=   2, J=  29

 MAXIMUM STEPSIZE WHICH MEETS STABILITY CRITERION OF THE ADVECTION TERM
 (FOR PURE FINITE-DIFFERENCE OPTION, MIXELM=0) 
 = 0.1135    (WHEN MIN. R.F.=1)  AT K=   3, I=   2, J=  28
=======
 = 0.1873    (WHEN MIN. R.F.=1)  AT K=   3, I=   2, J=  31

 MAXIMUM STEPSIZE WHICH MEETS STABILITY CRITERION OF THE ADVECTION TERM
 (FOR PURE FINITE-DIFFERENCE OPTION, MIXELM=0) 
 = 0.1251    (WHEN MIN. R.F.=1)  AT K=   3, I=   2, J=  30
>>>>>>> Stashed changes


 TOTAL NUMBER OF POINT SOURCES/SINKS PRESENT IN THE FLOW MODEL =   240

 MAXIMUM STEPSIZE WHICH MEETS STABILITY CRITERION OF THE SINK & SOURCE TERM
 = 0.1000E+31(WHEN MIN. R.F.=1)  AT K=   0, I=   0, J=   0

 MAXIMUM STEPSIZE WHICH MEETS STABILITY CRITERION OF THE DISPERSION TERM
<<<<<<< Updated upstream
 = 0.6212E-02(WHEN MIN. R.F.=1)  AT K=   3, I=   2, J=  31
     1 CALLS TO GCG PACKAGE FOR TRANSPORT TIME STEP   7 IN FLOW TIME STEP  10 STRESS PERIOD   2
    21 TOTAL ITERATIONS
0WARNING: NUMERICAL OSCILLATION ENCOUNTERED
 ONE OR MORE CELL CONCENTRATIONS LESS THAN CRHOREF
 SMALLEST DENSITY =  0.100E+04
 AT CELL (I,J,K) = (   3,  66,  20)
=======
 = 0.6715E-02(WHEN MIN. R.F.=1)  AT K=   3, I=   2, J=  30
     1 CALLS TO GCG PACKAGE FOR TRANSPORT TIME STEP   8 IN FLOW TIME STEP  11 STRESS PERIOD   2
     8 TOTAL ITERATIONS
  MAXIMUM CONCENTRATION CHANGES FOR EACH ITERATION:
  MAX. CHANGE LAYER,ROW,COL MAX. CHANGE LAYER,ROW,COL MAX. CHANGE LAYER,ROW,COL MAX. CHANGE LAYER,ROW,COL MAX. CHANGE LAYER,ROW,COL
 ------------------------------------------------------------------------------------------------------------------------------------
   0.6141E-03 ( 13,  3, 45)  0.7799E-04 (  6,  1, 52)  0.2368E-04 (  4,  2, 44)  0.8844E-05 (  3,  2, 37)  0.2170E-05 (  4,  2, 37)
   0.6668E-06 (  3,  1, 31)  0.1673E-06 (  3,  2, 32)  0.6089E-07 (  3,  2, 41)
 UBDSV1 SAVING "         STORAGE" ON UNIT  53 AT TIME STEP 11, STRESS PERIOD   2
 UBDSV2 SAVING "   CONSTANT HEAD" ON UNIT  53 AT TIME STEP 11, STRESS PERIOD   2
 UBDSV1 SAVING "FLOW RIGHT FACE " ON UNIT  53 AT TIME STEP 11, STRESS PERIOD   2
 UBDSV1 SAVING "FLOW FRONT FACE " ON UNIT  53 AT TIME STEP 11, STRESS PERIOD   2
 UBDSV1 SAVING "FLOW LOWER FACE " ON UNIT  53 AT TIME STEP 11, STRESS PERIOD   2
 UBDSV1 SAVING "            DCDT" ON UNIT  53 AT TIME STEP 11, STRESS PERIOD   2
0WARNING: NUMERICAL OSCILLATION ENCOUNTERED
 ONE OR MORE CELL CONCENTRATIONS LESS THAN CRHOREF
 SMALLEST DENSITY =  0.100E+04
 AT CELL (I,J,K) = (   3,  65,  21)


 HEAD WILL BE SAVED ON UNIT   51 AT END OF TIME STEP  11, STRESS PERIOD    2


                                          ================================================
                                                         FROM TIME =   12.000     TO    13.000    
>>>>>>> Stashed changes

 
 SOLVING FOR HEAD 
 FLOW MODEL IS TRANSIENT
 FLOW MODEL CONTAINS CONSTANT-HEAD CELLS


 MAXIMUM STEPSIZE DURING WHICH ANY PARTICLE CANNOT MOVE MORE THAN ONE CELL
<<<<<<< Updated upstream
 = 0.1637    (WHEN MIN. R.F.=1)  AT K=   3, I=   2, J=  29

 MAXIMUM STEPSIZE WHICH MEETS STABILITY CRITERION OF THE ADVECTION TERM
 (FOR PURE FINITE-DIFFERENCE OPTION, MIXELM=0) 
 = 0.1135    (WHEN MIN. R.F.=1)  AT K=   3, I=   2, J=  28
=======
 = 0.1873    (WHEN MIN. R.F.=1)  AT K=   3, I=   2, J=  31

 MAXIMUM STEPSIZE WHICH MEETS STABILITY CRITERION OF THE ADVECTION TERM
 (FOR PURE FINITE-DIFFERENCE OPTION, MIXELM=0) 
 = 0.1251    (WHEN MIN. R.F.=1)  AT K=   3, I=   2, J=  30
>>>>>>> Stashed changes


 TOTAL NUMBER OF POINT SOURCES/SINKS PRESENT IN THE FLOW MODEL =   240

 MAXIMUM STEPSIZE WHICH MEETS STABILITY CRITERION OF THE SINK & SOURCE TERM
 = 0.1000E+31(WHEN MIN. R.F.=1)  AT K=   0, I=   0, J=   0

 MAXIMUM STEPSIZE WHICH MEETS STABILITY CRITERION OF THE DISPERSION TERM
<<<<<<< Updated upstream
 = 0.6212E-02(WHEN MIN. R.F.=1)  AT K=   3, I=   2, J=  31
     1 CALLS TO GCG PACKAGE FOR TRANSPORT TIME STEP   8 IN FLOW TIME STEP  10 STRESS PERIOD   2
    20 TOTAL ITERATIONS
0WARNING: NUMERICAL OSCILLATION ENCOUNTERED
 ONE OR MORE CELL CONCENTRATIONS LESS THAN CRHOREF
 SMALLEST DENSITY =  0.100E+04
 AT CELL (I,J,K) = (   3,  66,  20)
=======
 = 0.6715E-02(WHEN MIN. R.F.=1)  AT K=   3, I=   2, J=  30


     1 CALLS TO GCG PACKAGE FOR TRANSPORT TIME STEP   1 IN FLOW TIME STEP  12 STRESS PERIOD   2
    22 TOTAL ITERATIONS

 OUTPUT CONTROL FOR STRESS PERIOD    2   TIME STEP  12
    SAVE HEAD FOR ALL LAYERS
    SAVE BUDGET
0WARNING: NUMERICAL OSCILLATION ENCOUNTERED
 ONE OR MORE CELL CONCENTRATIONS LESS THAN CRHOREF
 SMALLEST DENSITY =  0.100E+04
 AT CELL (I,J,K) = (   3,  65,  21)
>>>>>>> Stashed changes

 
 SOLVING FOR HEAD 
 FLOW MODEL IS TRANSIENT
 FLOW MODEL CONTAINS CONSTANT-HEAD CELLS


 MAXIMUM STEPSIZE DURING WHICH ANY PARTICLE CANNOT MOVE MORE THAN ONE CELL
<<<<<<< Updated upstream
 = 0.1637    (WHEN MIN. R.F.=1)  AT K=   3, I=   2, J=  29

 MAXIMUM STEPSIZE WHICH MEETS STABILITY CRITERION OF THE ADVECTION TERM
 (FOR PURE FINITE-DIFFERENCE OPTION, MIXELM=0) 
 = 0.1135    (WHEN MIN. R.F.=1)  AT K=   3, I=   2, J=  28
=======
 = 0.1873    (WHEN MIN. R.F.=1)  AT K=   3, I=   2, J=  31

 MAXIMUM STEPSIZE WHICH MEETS STABILITY CRITERION OF THE ADVECTION TERM
 (FOR PURE FINITE-DIFFERENCE OPTION, MIXELM=0) 
 = 0.1251    (WHEN MIN. R.F.=1)  AT K=   3, I=   2, J=  30
>>>>>>> Stashed changes


 TOTAL NUMBER OF POINT SOURCES/SINKS PRESENT IN THE FLOW MODEL =   240

 MAXIMUM STEPSIZE WHICH MEETS STABILITY CRITERION OF THE SINK & SOURCE TERM
 = 0.1000E+31(WHEN MIN. R.F.=1)  AT K=   0, I=   0, J=   0

 MAXIMUM STEPSIZE WHICH MEETS STABILITY CRITERION OF THE DISPERSION TERM
<<<<<<< Updated upstream
 = 0.6212E-02(WHEN MIN. R.F.=1)  AT K=   3, I=   2, J=  31
     1 CALLS TO GCG PACKAGE FOR TRANSPORT TIME STEP   9 IN FLOW TIME STEP  10 STRESS PERIOD   2
     9 TOTAL ITERATIONS
  MAXIMUM CONCENTRATION CHANGES FOR EACH ITERATION:
  MAX. CHANGE LAYER,ROW,COL MAX. CHANGE LAYER,ROW,COL MAX. CHANGE LAYER,ROW,COL MAX. CHANGE LAYER,ROW,COL MAX. CHANGE LAYER,ROW,COL
 ------------------------------------------------------------------------------------------------------------------------------------
   0.7096E-03 (  9,  3, 55)  0.1144E-03 (  6,  1, 54)  0.2691E-04 (  4,  2, 42)  0.1031E-04 (  3,  3, 31)  0.4134E-05 (  3,  3, 30)
   0.1911E-05 (  3,  3, 31)  0.4576E-06 (  3,  3, 30)  0.1407E-06 (  3,  3, 29)  0.4957E-07 (  4,  3, 29)
0WARNING: NUMERICAL OSCILLATION ENCOUNTERED
 ONE OR MORE CELL CONCENTRATIONS LESS THAN CRHOREF
 SMALLEST DENSITY =  0.100E+04
 AT CELL (I,J,K) = (   3,  66,  20)



                                          ================================================
                                                         FROM TIME =   11.000     TO    12.000    
=======
 = 0.6715E-02(WHEN MIN. R.F.=1)  AT K=   3, I=   2, J=  30
     1 CALLS TO GCG PACKAGE FOR TRANSPORT TIME STEP   2 IN FLOW TIME STEP  12 STRESS PERIOD   2
    22 TOTAL ITERATIONS
0WARNING: NUMERICAL OSCILLATION ENCOUNTERED
 ONE OR MORE CELL CONCENTRATIONS LESS THAN CRHOREF
 SMALLEST DENSITY =  0.100E+04
 AT CELL (I,J,K) = (   3,  65,  21)
>>>>>>> Stashed changes

 
 SOLVING FOR HEAD 
 FLOW MODEL IS TRANSIENT
 FLOW MODEL CONTAINS CONSTANT-HEAD CELLS


 MAXIMUM STEPSIZE DURING WHICH ANY PARTICLE CANNOT MOVE MORE THAN ONE CELL
<<<<<<< Updated upstream
 = 0.1637    (WHEN MIN. R.F.=1)  AT K=   3, I=   2, J=  29

 MAXIMUM STEPSIZE WHICH MEETS STABILITY CRITERION OF THE ADVECTION TERM
 (FOR PURE FINITE-DIFFERENCE OPTION, MIXELM=0) 
 = 0.1135    (WHEN MIN. R.F.=1)  AT K=   3, I=   2, J=  28
=======
 = 0.1873    (WHEN MIN. R.F.=1)  AT K=   3, I=   2, J=  31

 MAXIMUM STEPSIZE WHICH MEETS STABILITY CRITERION OF THE ADVECTION TERM
 (FOR PURE FINITE-DIFFERENCE OPTION, MIXELM=0) 
 = 0.1251    (WHEN MIN. R.F.=1)  AT K=   3, I=   2, J=  30
>>>>>>> Stashed changes


 TOTAL NUMBER OF POINT SOURCES/SINKS PRESENT IN THE FLOW MODEL =   240

 MAXIMUM STEPSIZE WHICH MEETS STABILITY CRITERION OF THE SINK & SOURCE TERM
 = 0.1000E+31(WHEN MIN. R.F.=1)  AT K=   0, I=   0, J=   0

 MAXIMUM STEPSIZE WHICH MEETS STABILITY CRITERION OF THE DISPERSION TERM
<<<<<<< Updated upstream
 = 0.6212E-02(WHEN MIN. R.F.=1)  AT K=   3, I=   2, J=  31


     1 CALLS TO GCG PACKAGE FOR TRANSPORT TIME STEP   1 IN FLOW TIME STEP  11 STRESS PERIOD   2
    20 TOTAL ITERATIONS

 NO OUTPUT CONTROL FOR STRESS PERIOD    2   TIME STEP  11
0WARNING: NUMERICAL OSCILLATION ENCOUNTERED
 ONE OR MORE CELL CONCENTRATIONS LESS THAN CRHOREF
 SMALLEST DENSITY =  0.100E+04
 AT CELL (I,J,K) = (   3,  66,  20)
=======
 = 0.6715E-02(WHEN MIN. R.F.=1)  AT K=   3, I=   2, J=  30
     1 CALLS TO GCG PACKAGE FOR TRANSPORT TIME STEP   3 IN FLOW TIME STEP  12 STRESS PERIOD   2
    22 TOTAL ITERATIONS
0WARNING: NUMERICAL OSCILLATION ENCOUNTERED
 ONE OR MORE CELL CONCENTRATIONS LESS THAN CRHOREF
 SMALLEST DENSITY =  0.100E+04
 AT CELL (I,J,K) = (   3,  65,  21)
>>>>>>> Stashed changes

 
 SOLVING FOR HEAD 
 FLOW MODEL IS TRANSIENT
 FLOW MODEL CONTAINS CONSTANT-HEAD CELLS


 MAXIMUM STEPSIZE DURING WHICH ANY PARTICLE CANNOT MOVE MORE THAN ONE CELL
<<<<<<< Updated upstream
 = 0.1637    (WHEN MIN. R.F.=1)  AT K=   3, I=   2, J=  29

 MAXIMUM STEPSIZE WHICH MEETS STABILITY CRITERION OF THE ADVECTION TERM
 (FOR PURE FINITE-DIFFERENCE OPTION, MIXELM=0) 
 = 0.1135    (WHEN MIN. R.F.=1)  AT K=   3, I=   2, J=  28
=======
 = 0.1873    (WHEN MIN. R.F.=1)  AT K=   3, I=   2, J=  31

 MAXIMUM STEPSIZE WHICH MEETS STABILITY CRITERION OF THE ADVECTION TERM
 (FOR PURE FINITE-DIFFERENCE OPTION, MIXELM=0) 
 = 0.1251    (WHEN MIN. R.F.=1)  AT K=   3, I=   2, J=  30
>>>>>>> Stashed changes


 TOTAL NUMBER OF POINT SOURCES/SINKS PRESENT IN THE FLOW MODEL =   240

 MAXIMUM STEPSIZE WHICH MEETS STABILITY CRITERION OF THE SINK & SOURCE TERM
 = 0.1000E+31(WHEN MIN. R.F.=1)  AT K=   0, I=   0, J=   0

 MAXIMUM STEPSIZE WHICH MEETS STABILITY CRITERION OF THE DISPERSION TERM
<<<<<<< Updated upstream
 = 0.6212E-02(WHEN MIN. R.F.=1)  AT K=   3, I=   2, J=  31
     1 CALLS TO GCG PACKAGE FOR TRANSPORT TIME STEP   2 IN FLOW TIME STEP  11 STRESS PERIOD   2
    20 TOTAL ITERATIONS
0WARNING: NUMERICAL OSCILLATION ENCOUNTERED
 ONE OR MORE CELL CONCENTRATIONS LESS THAN CRHOREF
 SMALLEST DENSITY =  0.100E+04
 AT CELL (I,J,K) = (   3,  66,  20)
=======
 = 0.6715E-02(WHEN MIN. R.F.=1)  AT K=   3, I=   2, J=  30
     1 CALLS TO GCG PACKAGE FOR TRANSPORT TIME STEP   4 IN FLOW TIME STEP  12 STRESS PERIOD   2
    22 TOTAL ITERATIONS
0WARNING: NUMERICAL OSCILLATION ENCOUNTERED
 ONE OR MORE CELL CONCENTRATIONS LESS THAN CRHOREF
 SMALLEST DENSITY =  0.100E+04
 AT CELL (I,J,K) = (   3,  65,  21)
>>>>>>> Stashed changes

 
 SOLVING FOR HEAD 
 FLOW MODEL IS TRANSIENT
 FLOW MODEL CONTAINS CONSTANT-HEAD CELLS


 MAXIMUM STEPSIZE DURING WHICH ANY PARTICLE CANNOT MOVE MORE THAN ONE CELL
<<<<<<< Updated upstream
 = 0.1637    (WHEN MIN. R.F.=1)  AT K=   3, I=   2, J=  29

 MAXIMUM STEPSIZE WHICH MEETS STABILITY CRITERION OF THE ADVECTION TERM
 (FOR PURE FINITE-DIFFERENCE OPTION, MIXELM=0) 
 = 0.1135    (WHEN MIN. R.F.=1)  AT K=   3, I=   2, J=  28
=======
 = 0.1873    (WHEN MIN. R.F.=1)  AT K=   3, I=   2, J=  31

 MAXIMUM STEPSIZE WHICH MEETS STABILITY CRITERION OF THE ADVECTION TERM
 (FOR PURE FINITE-DIFFERENCE OPTION, MIXELM=0) 
 = 0.1251    (WHEN MIN. R.F.=1)  AT K=   3, I=   2, J=  30
>>>>>>> Stashed changes


 TOTAL NUMBER OF POINT SOURCES/SINKS PRESENT IN THE FLOW MODEL =   240

 MAXIMUM STEPSIZE WHICH MEETS STABILITY CRITERION OF THE SINK & SOURCE TERM
 = 0.1000E+31(WHEN MIN. R.F.=1)  AT K=   0, I=   0, J=   0

 MAXIMUM STEPSIZE WHICH MEETS STABILITY CRITERION OF THE DISPERSION TERM
<<<<<<< Updated upstream
 = 0.6212E-02(WHEN MIN. R.F.=1)  AT K=   3, I=   2, J=  31
     1 CALLS TO GCG PACKAGE FOR TRANSPORT TIME STEP   3 IN FLOW TIME STEP  11 STRESS PERIOD   2
    20 TOTAL ITERATIONS
0WARNING: NUMERICAL OSCILLATION ENCOUNTERED
 ONE OR MORE CELL CONCENTRATIONS LESS THAN CRHOREF
 SMALLEST DENSITY =  0.100E+04
 AT CELL (I,J,K) = (   3,  66,  20)
=======
 = 0.6715E-02(WHEN MIN. R.F.=1)  AT K=   3, I=   2, J=  30
     1 CALLS TO GCG PACKAGE FOR TRANSPORT TIME STEP   5 IN FLOW TIME STEP  12 STRESS PERIOD   2
    22 TOTAL ITERATIONS
0WARNING: NUMERICAL OSCILLATION ENCOUNTERED
 ONE OR MORE CELL CONCENTRATIONS LESS THAN CRHOREF
 SMALLEST DENSITY =  0.100E+04
 AT CELL (I,J,K) = (   3,  65,  21)
>>>>>>> Stashed changes

 
 SOLVING FOR HEAD 
 FLOW MODEL IS TRANSIENT
 FLOW MODEL CONTAINS CONSTANT-HEAD CELLS


 MAXIMUM STEPSIZE DURING WHICH ANY PARTICLE CANNOT MOVE MORE THAN ONE CELL
<<<<<<< Updated upstream
 = 0.1637    (WHEN MIN. R.F.=1)  AT K=   3, I=   2, J=  29

 MAXIMUM STEPSIZE WHICH MEETS STABILITY CRITERION OF THE ADVECTION TERM
 (FOR PURE FINITE-DIFFERENCE OPTION, MIXELM=0) 
 = 0.1135    (WHEN MIN. R.F.=1)  AT K=   3, I=   2, J=  28
=======
 = 0.1873    (WHEN MIN. R.F.=1)  AT K=   3, I=   2, J=  31

 MAXIMUM STEPSIZE WHICH MEETS STABILITY CRITERION OF THE ADVECTION TERM
 (FOR PURE FINITE-DIFFERENCE OPTION, MIXELM=0) 
 = 0.1251    (WHEN MIN. R.F.=1)  AT K=   3, I=   2, J=  30
>>>>>>> Stashed changes


 TOTAL NUMBER OF POINT SOURCES/SINKS PRESENT IN THE FLOW MODEL =   240

 MAXIMUM STEPSIZE WHICH MEETS STABILITY CRITERION OF THE SINK & SOURCE TERM
 = 0.1000E+31(WHEN MIN. R.F.=1)  AT K=   0, I=   0, J=   0

 MAXIMUM STEPSIZE WHICH MEETS STABILITY CRITERION OF THE DISPERSION TERM
<<<<<<< Updated upstream
 = 0.6212E-02(WHEN MIN. R.F.=1)  AT K=   3, I=   2, J=  31
     1 CALLS TO GCG PACKAGE FOR TRANSPORT TIME STEP   4 IN FLOW TIME STEP  11 STRESS PERIOD   2
    20 TOTAL ITERATIONS
0WARNING: NUMERICAL OSCILLATION ENCOUNTERED
 ONE OR MORE CELL CONCENTRATIONS LESS THAN CRHOREF
 SMALLEST DENSITY =  0.100E+04
 AT CELL (I,J,K) = (   3,  66,  20)
=======
 = 0.6715E-02(WHEN MIN. R.F.=1)  AT K=   3, I=   2, J=  30
     1 CALLS TO GCG PACKAGE FOR TRANSPORT TIME STEP   6 IN FLOW TIME STEP  12 STRESS PERIOD   2
    22 TOTAL ITERATIONS
0WARNING: NUMERICAL OSCILLATION ENCOUNTERED
 ONE OR MORE CELL CONCENTRATIONS LESS THAN CRHOREF
 SMALLEST DENSITY =  0.100E+04
 AT CELL (I,J,K) = (   1,  65,  21)
>>>>>>> Stashed changes

 
 SOLVING FOR HEAD 
 FLOW MODEL IS TRANSIENT
 FLOW MODEL CONTAINS CONSTANT-HEAD CELLS


 MAXIMUM STEPSIZE DURING WHICH ANY PARTICLE CANNOT MOVE MORE THAN ONE CELL
<<<<<<< Updated upstream
 = 0.1637    (WHEN MIN. R.F.=1)  AT K=   3, I=   2, J=  29

 MAXIMUM STEPSIZE WHICH MEETS STABILITY CRITERION OF THE ADVECTION TERM
 (FOR PURE FINITE-DIFFERENCE OPTION, MIXELM=0) 
 = 0.1135    (WHEN MIN. R.F.=1)  AT K=   3, I=   2, J=  28
=======
 = 0.1873    (WHEN MIN. R.F.=1)  AT K=   3, I=   2, J=  31

 MAXIMUM STEPSIZE WHICH MEETS STABILITY CRITERION OF THE ADVECTION TERM
 (FOR PURE FINITE-DIFFERENCE OPTION, MIXELM=0) 
 = 0.1251    (WHEN MIN. R.F.=1)  AT K=   3, I=   2, J=  30
>>>>>>> Stashed changes


 TOTAL NUMBER OF POINT SOURCES/SINKS PRESENT IN THE FLOW MODEL =   240

 MAXIMUM STEPSIZE WHICH MEETS STABILITY CRITERION OF THE SINK & SOURCE TERM
 = 0.1000E+31(WHEN MIN. R.F.=1)  AT K=   0, I=   0, J=   0

 MAXIMUM STEPSIZE WHICH MEETS STABILITY CRITERION OF THE DISPERSION TERM
<<<<<<< Updated upstream
 = 0.6212E-02(WHEN MIN. R.F.=1)  AT K=   3, I=   2, J=  31
     1 CALLS TO GCG PACKAGE FOR TRANSPORT TIME STEP   5 IN FLOW TIME STEP  11 STRESS PERIOD   2
    20 TOTAL ITERATIONS
0WARNING: NUMERICAL OSCILLATION ENCOUNTERED
 ONE OR MORE CELL CONCENTRATIONS LESS THAN CRHOREF
 SMALLEST DENSITY =  0.100E+04
 AT CELL (I,J,K) = (   3,  66,  20)
=======
 = 0.6715E-02(WHEN MIN. R.F.=1)  AT K=   3, I=   2, J=  30
     1 CALLS TO GCG PACKAGE FOR TRANSPORT TIME STEP   7 IN FLOW TIME STEP  12 STRESS PERIOD   2
    22 TOTAL ITERATIONS
0WARNING: NUMERICAL OSCILLATION ENCOUNTERED
 ONE OR MORE CELL CONCENTRATIONS LESS THAN CRHOREF
 SMALLEST DENSITY =  0.100E+04
 AT CELL (I,J,K) = (   3,  66,  21)
>>>>>>> Stashed changes

 
 SOLVING FOR HEAD 
 FLOW MODEL IS TRANSIENT
 FLOW MODEL CONTAINS CONSTANT-HEAD CELLS


 MAXIMUM STEPSIZE DURING WHICH ANY PARTICLE CANNOT MOVE MORE THAN ONE CELL
<<<<<<< Updated upstream
 = 0.1637    (WHEN MIN. R.F.=1)  AT K=   3, I=   2, J=  29

 MAXIMUM STEPSIZE WHICH MEETS STABILITY CRITERION OF THE ADVECTION TERM
 (FOR PURE FINITE-DIFFERENCE OPTION, MIXELM=0) 
 = 0.1135    (WHEN MIN. R.F.=1)  AT K=   3, I=   2, J=  28
=======
 = 0.1873    (WHEN MIN. R.F.=1)  AT K=   3, I=   2, J=  31

 MAXIMUM STEPSIZE WHICH MEETS STABILITY CRITERION OF THE ADVECTION TERM
 (FOR PURE FINITE-DIFFERENCE OPTION, MIXELM=0) 
 = 0.1251    (WHEN MIN. R.F.=1)  AT K=   3, I=   2, J=  30
>>>>>>> Stashed changes


 TOTAL NUMBER OF POINT SOURCES/SINKS PRESENT IN THE FLOW MODEL =   240

 MAXIMUM STEPSIZE WHICH MEETS STABILITY CRITERION OF THE SINK & SOURCE TERM
 = 0.1000E+31(WHEN MIN. R.F.=1)  AT K=   0, I=   0, J=   0

 MAXIMUM STEPSIZE WHICH MEETS STABILITY CRITERION OF THE DISPERSION TERM
<<<<<<< Updated upstream
 = 0.6212E-02(WHEN MIN. R.F.=1)  AT K=   3, I=   2, J=  31
     1 CALLS TO GCG PACKAGE FOR TRANSPORT TIME STEP   6 IN FLOW TIME STEP  11 STRESS PERIOD   2
    20 TOTAL ITERATIONS
0WARNING: NUMERICAL OSCILLATION ENCOUNTERED
 ONE OR MORE CELL CONCENTRATIONS LESS THAN CRHOREF
 SMALLEST DENSITY =  0.100E+04
 AT CELL (I,J,K) = (   3,  66,  20)
=======
 = 0.6715E-02(WHEN MIN. R.F.=1)  AT K=   3, I=   2, J=  30
     1 CALLS TO GCG PACKAGE FOR TRANSPORT TIME STEP   8 IN FLOW TIME STEP  12 STRESS PERIOD   2
     8 TOTAL ITERATIONS
  MAXIMUM CONCENTRATION CHANGES FOR EACH ITERATION:
  MAX. CHANGE LAYER,ROW,COL MAX. CHANGE LAYER,ROW,COL MAX. CHANGE LAYER,ROW,COL MAX. CHANGE LAYER,ROW,COL MAX. CHANGE LAYER,ROW,COL
 ------------------------------------------------------------------------------------------------------------------------------------
   0.5739E-03 ( 13,  3, 46)  0.6957E-04 (  6,  1, 52)  0.2062E-04 (  4,  2, 44)  0.7651E-05 (  3,  2, 37)  0.1864E-05 (  4,  2, 37)
   0.5869E-06 (  3,  1, 31)  0.1450E-06 (  3,  2, 32)  0.5362E-07 (  3,  2, 41)
 UBDSV1 SAVING "         STORAGE" ON UNIT  53 AT TIME STEP 12, STRESS PERIOD   2
 UBDSV2 SAVING "   CONSTANT HEAD" ON UNIT  53 AT TIME STEP 12, STRESS PERIOD   2
 UBDSV1 SAVING "FLOW RIGHT FACE " ON UNIT  53 AT TIME STEP 12, STRESS PERIOD   2
 UBDSV1 SAVING "FLOW FRONT FACE " ON UNIT  53 AT TIME STEP 12, STRESS PERIOD   2
 UBDSV1 SAVING "FLOW LOWER FACE " ON UNIT  53 AT TIME STEP 12, STRESS PERIOD   2
 UBDSV1 SAVING "            DCDT" ON UNIT  53 AT TIME STEP 12, STRESS PERIOD   2
0WARNING: NUMERICAL OSCILLATION ENCOUNTERED
 ONE OR MORE CELL CONCENTRATIONS LESS THAN CRHOREF
 SMALLEST DENSITY =  0.100E+04
 AT CELL (I,J,K) = (   3,  66,  21)


 HEAD WILL BE SAVED ON UNIT   51 AT END OF TIME STEP  12, STRESS PERIOD    2


                                          ================================================
                                                         FROM TIME =   13.000     TO    14.000    
>>>>>>> Stashed changes

 
 SOLVING FOR HEAD 
 FLOW MODEL IS TRANSIENT
 FLOW MODEL CONTAINS CONSTANT-HEAD CELLS


 MAXIMUM STEPSIZE DURING WHICH ANY PARTICLE CANNOT MOVE MORE THAN ONE CELL
<<<<<<< Updated upstream
 = 0.1637    (WHEN MIN. R.F.=1)  AT K=   3, I=   2, J=  29

 MAXIMUM STEPSIZE WHICH MEETS STABILITY CRITERION OF THE ADVECTION TERM
 (FOR PURE FINITE-DIFFERENCE OPTION, MIXELM=0) 
 = 0.1135    (WHEN MIN. R.F.=1)  AT K=   3, I=   2, J=  28
=======
 = 0.1873    (WHEN MIN. R.F.=1)  AT K=   3, I=   2, J=  31

 MAXIMUM STEPSIZE WHICH MEETS STABILITY CRITERION OF THE ADVECTION TERM
 (FOR PURE FINITE-DIFFERENCE OPTION, MIXELM=0) 
 = 0.1251    (WHEN MIN. R.F.=1)  AT K=   3, I=   2, J=  30
>>>>>>> Stashed changes


 TOTAL NUMBER OF POINT SOURCES/SINKS PRESENT IN THE FLOW MODEL =   240

 MAXIMUM STEPSIZE WHICH MEETS STABILITY CRITERION OF THE SINK & SOURCE TERM
 = 0.1000E+31(WHEN MIN. R.F.=1)  AT K=   0, I=   0, J=   0

 MAXIMUM STEPSIZE WHICH MEETS STABILITY CRITERION OF THE DISPERSION TERM
<<<<<<< Updated upstream
 = 0.6212E-02(WHEN MIN. R.F.=1)  AT K=   3, I=   2, J=  31
     1 CALLS TO GCG PACKAGE FOR TRANSPORT TIME STEP   7 IN FLOW TIME STEP  11 STRESS PERIOD   2
    20 TOTAL ITERATIONS
0WARNING: NUMERICAL OSCILLATION ENCOUNTERED
 ONE OR MORE CELL CONCENTRATIONS LESS THAN CRHOREF
 SMALLEST DENSITY =  0.100E+04
 AT CELL (I,J,K) = (   3,  66,  20)
=======
 = 0.6715E-02(WHEN MIN. R.F.=1)  AT K=   3, I=   2, J=  30


     1 CALLS TO GCG PACKAGE FOR TRANSPORT TIME STEP   1 IN FLOW TIME STEP  13 STRESS PERIOD   2
    22 TOTAL ITERATIONS

 OUTPUT CONTROL FOR STRESS PERIOD    2   TIME STEP  13
    SAVE HEAD FOR ALL LAYERS
    SAVE BUDGET
0WARNING: NUMERICAL OSCILLATION ENCOUNTERED
 ONE OR MORE CELL CONCENTRATIONS LESS THAN CRHOREF
 SMALLEST DENSITY =  0.100E+04
 AT CELL (I,J,K) = (   3,  66,  21)
>>>>>>> Stashed changes

 
 SOLVING FOR HEAD 
 FLOW MODEL IS TRANSIENT
 FLOW MODEL CONTAINS CONSTANT-HEAD CELLS


 MAXIMUM STEPSIZE DURING WHICH ANY PARTICLE CANNOT MOVE MORE THAN ONE CELL
<<<<<<< Updated upstream
 = 0.1637    (WHEN MIN. R.F.=1)  AT K=   3, I=   2, J=  29

 MAXIMUM STEPSIZE WHICH MEETS STABILITY CRITERION OF THE ADVECTION TERM
 (FOR PURE FINITE-DIFFERENCE OPTION, MIXELM=0) 
 = 0.1135    (WHEN MIN. R.F.=1)  AT K=   3, I=   2, J=  28
=======
 = 0.1873    (WHEN MIN. R.F.=1)  AT K=   3, I=   2, J=  31

 MAXIMUM STEPSIZE WHICH MEETS STABILITY CRITERION OF THE ADVECTION TERM
 (FOR PURE FINITE-DIFFERENCE OPTION, MIXELM=0) 
 = 0.1251    (WHEN MIN. R.F.=1)  AT K=   3, I=   2, J=  30
>>>>>>> Stashed changes


 TOTAL NUMBER OF POINT SOURCES/SINKS PRESENT IN THE FLOW MODEL =   240

 MAXIMUM STEPSIZE WHICH MEETS STABILITY CRITERION OF THE SINK & SOURCE TERM
 = 0.1000E+31(WHEN MIN. R.F.=1)  AT K=   0, I=   0, J=   0

 MAXIMUM STEPSIZE WHICH MEETS STABILITY CRITERION OF THE DISPERSION TERM
<<<<<<< Updated upstream
 = 0.6212E-02(WHEN MIN. R.F.=1)  AT K=   3, I=   2, J=  31
     1 CALLS TO GCG PACKAGE FOR TRANSPORT TIME STEP   8 IN FLOW TIME STEP  11 STRESS PERIOD   2
    20 TOTAL ITERATIONS
0WARNING: NUMERICAL OSCILLATION ENCOUNTERED
 ONE OR MORE CELL CONCENTRATIONS LESS THAN CRHOREF
 SMALLEST DENSITY =  0.100E+04
 AT CELL (I,J,K) = (   1,  43,  26)
=======
 = 0.6715E-02(WHEN MIN. R.F.=1)  AT K=   3, I=   2, J=  30
     1 CALLS TO GCG PACKAGE FOR TRANSPORT TIME STEP   2 IN FLOW TIME STEP  13 STRESS PERIOD   2
    22 TOTAL ITERATIONS
0WARNING: NUMERICAL OSCILLATION ENCOUNTERED
 ONE OR MORE CELL CONCENTRATIONS LESS THAN CRHOREF
 SMALLEST DENSITY =  0.100E+04
 AT CELL (I,J,K) = (   3,  66,  21)
>>>>>>> Stashed changes

 
 SOLVING FOR HEAD 
 FLOW MODEL IS TRANSIENT
 FLOW MODEL CONTAINS CONSTANT-HEAD CELLS


 MAXIMUM STEPSIZE DURING WHICH ANY PARTICLE CANNOT MOVE MORE THAN ONE CELL
<<<<<<< Updated upstream
 = 0.1637    (WHEN MIN. R.F.=1)  AT K=   3, I=   2, J=  29

 MAXIMUM STEPSIZE WHICH MEETS STABILITY CRITERION OF THE ADVECTION TERM
 (FOR PURE FINITE-DIFFERENCE OPTION, MIXELM=0) 
 = 0.1135    (WHEN MIN. R.F.=1)  AT K=   3, I=   2, J=  28
=======
 = 0.1873    (WHEN MIN. R.F.=1)  AT K=   3, I=   2, J=  31

 MAXIMUM STEPSIZE WHICH MEETS STABILITY CRITERION OF THE ADVECTION TERM
 (FOR PURE FINITE-DIFFERENCE OPTION, MIXELM=0) 
 = 0.1251    (WHEN MIN. R.F.=1)  AT K=   3, I=   2, J=  30
>>>>>>> Stashed changes


 TOTAL NUMBER OF POINT SOURCES/SINKS PRESENT IN THE FLOW MODEL =   240

 MAXIMUM STEPSIZE WHICH MEETS STABILITY CRITERION OF THE SINK & SOURCE TERM
 = 0.1000E+31(WHEN MIN. R.F.=1)  AT K=   0, I=   0, J=   0

 MAXIMUM STEPSIZE WHICH MEETS STABILITY CRITERION OF THE DISPERSION TERM
<<<<<<< Updated upstream
 = 0.6212E-02(WHEN MIN. R.F.=1)  AT K=   3, I=   2, J=  31
     1 CALLS TO GCG PACKAGE FOR TRANSPORT TIME STEP   9 IN FLOW TIME STEP  11 STRESS PERIOD   2
     9 TOTAL ITERATIONS
  MAXIMUM CONCENTRATION CHANGES FOR EACH ITERATION:
  MAX. CHANGE LAYER,ROW,COL MAX. CHANGE LAYER,ROW,COL MAX. CHANGE LAYER,ROW,COL MAX. CHANGE LAYER,ROW,COL MAX. CHANGE LAYER,ROW,COL
 ------------------------------------------------------------------------------------------------------------------------------------
   0.6474E-03 ( 10,  3, 52)  0.1015E-03 (  6,  1, 56)  0.2314E-04 (  4,  2, 42)  0.8964E-05 (  3,  3, 31)  0.3592E-05 (  3,  3, 30)
   0.1661E-05 (  3,  3, 31)  0.4017E-06 (  3,  3, 30)  0.1236E-06 (  3,  3, 29)  0.4320E-07 (  4,  3, 29)
0WARNING: NUMERICAL OSCILLATION ENCOUNTERED
 ONE OR MORE CELL CONCENTRATIONS LESS THAN CRHOREF
 SMALLEST DENSITY =  0.100E+04
 AT CELL (I,J,K) = (   1,  43,  26)



                                          ================================================
                                                         FROM TIME =   12.000     TO    13.000    
=======
 = 0.6715E-02(WHEN MIN. R.F.=1)  AT K=   3, I=   2, J=  30
     1 CALLS TO GCG PACKAGE FOR TRANSPORT TIME STEP   3 IN FLOW TIME STEP  13 STRESS PERIOD   2
    22 TOTAL ITERATIONS
0WARNING: NUMERICAL OSCILLATION ENCOUNTERED
 ONE OR MORE CELL CONCENTRATIONS LESS THAN CRHOREF
 SMALLEST DENSITY =  0.100E+04
 AT CELL (I,J,K) = (   3,  65,  22)
>>>>>>> Stashed changes

 
 SOLVING FOR HEAD 
 FLOW MODEL IS TRANSIENT
 FLOW MODEL CONTAINS CONSTANT-HEAD CELLS


 MAXIMUM STEPSIZE DURING WHICH ANY PARTICLE CANNOT MOVE MORE THAN ONE CELL
<<<<<<< Updated upstream
 = 0.1637    (WHEN MIN. R.F.=1)  AT K=   3, I=   2, J=  29

 MAXIMUM STEPSIZE WHICH MEETS STABILITY CRITERION OF THE ADVECTION TERM
 (FOR PURE FINITE-DIFFERENCE OPTION, MIXELM=0) 
 = 0.1135    (WHEN MIN. R.F.=1)  AT K=   3, I=   2, J=  28
=======
 = 0.1873    (WHEN MIN. R.F.=1)  AT K=   3, I=   2, J=  31

 MAXIMUM STEPSIZE WHICH MEETS STABILITY CRITERION OF THE ADVECTION TERM
 (FOR PURE FINITE-DIFFERENCE OPTION, MIXELM=0) 
 = 0.1251    (WHEN MIN. R.F.=1)  AT K=   3, I=   2, J=  30
>>>>>>> Stashed changes


 TOTAL NUMBER OF POINT SOURCES/SINKS PRESENT IN THE FLOW MODEL =   240

 MAXIMUM STEPSIZE WHICH MEETS STABILITY CRITERION OF THE SINK & SOURCE TERM
 = 0.1000E+31(WHEN MIN. R.F.=1)  AT K=   0, I=   0, J=   0

 MAXIMUM STEPSIZE WHICH MEETS STABILITY CRITERION OF THE DISPERSION TERM
<<<<<<< Updated upstream
 = 0.6212E-02(WHEN MIN. R.F.=1)  AT K=   3, I=   2, J=  31


     1 CALLS TO GCG PACKAGE FOR TRANSPORT TIME STEP   1 IN FLOW TIME STEP  12 STRESS PERIOD   2
    20 TOTAL ITERATIONS

 NO OUTPUT CONTROL FOR STRESS PERIOD    2   TIME STEP  12
0WARNING: NUMERICAL OSCILLATION ENCOUNTERED
 ONE OR MORE CELL CONCENTRATIONS LESS THAN CRHOREF
 SMALLEST DENSITY =  0.100E+04
 AT CELL (I,J,K) = (   1,  43,  26)
=======
 = 0.6715E-02(WHEN MIN. R.F.=1)  AT K=   3, I=   2, J=  30
     1 CALLS TO GCG PACKAGE FOR TRANSPORT TIME STEP   4 IN FLOW TIME STEP  13 STRESS PERIOD   2
    22 TOTAL ITERATIONS
0WARNING: NUMERICAL OSCILLATION ENCOUNTERED
 ONE OR MORE CELL CONCENTRATIONS LESS THAN CRHOREF
 SMALLEST DENSITY =  0.100E+04
 AT CELL (I,J,K) = (   3,  65,  22)
>>>>>>> Stashed changes

 
 SOLVING FOR HEAD 
 FLOW MODEL IS TRANSIENT
 FLOW MODEL CONTAINS CONSTANT-HEAD CELLS


 MAXIMUM STEPSIZE DURING WHICH ANY PARTICLE CANNOT MOVE MORE THAN ONE CELL
<<<<<<< Updated upstream
 = 0.1637    (WHEN MIN. R.F.=1)  AT K=   3, I=   2, J=  29

 MAXIMUM STEPSIZE WHICH MEETS STABILITY CRITERION OF THE ADVECTION TERM
 (FOR PURE FINITE-DIFFERENCE OPTION, MIXELM=0) 
 = 0.1135    (WHEN MIN. R.F.=1)  AT K=   3, I=   2, J=  28
=======
 = 0.1873    (WHEN MIN. R.F.=1)  AT K=   3, I=   2, J=  31

 MAXIMUM STEPSIZE WHICH MEETS STABILITY CRITERION OF THE ADVECTION TERM
 (FOR PURE FINITE-DIFFERENCE OPTION, MIXELM=0) 
 = 0.1251    (WHEN MIN. R.F.=1)  AT K=   3, I=   2, J=  30
>>>>>>> Stashed changes


 TOTAL NUMBER OF POINT SOURCES/SINKS PRESENT IN THE FLOW MODEL =   240

 MAXIMUM STEPSIZE WHICH MEETS STABILITY CRITERION OF THE SINK & SOURCE TERM
 = 0.1000E+31(WHEN MIN. R.F.=1)  AT K=   0, I=   0, J=   0

 MAXIMUM STEPSIZE WHICH MEETS STABILITY CRITERION OF THE DISPERSION TERM
<<<<<<< Updated upstream
 = 0.6212E-02(WHEN MIN. R.F.=1)  AT K=   3, I=   2, J=  31
     1 CALLS TO GCG PACKAGE FOR TRANSPORT TIME STEP   2 IN FLOW TIME STEP  12 STRESS PERIOD   2
    20 TOTAL ITERATIONS
0WARNING: NUMERICAL OSCILLATION ENCOUNTERED
 ONE OR MORE CELL CONCENTRATIONS LESS THAN CRHOREF
 SMALLEST DENSITY =  0.100E+04
 AT CELL (I,J,K) = (   1,  43,  26)
=======
 = 0.6715E-02(WHEN MIN. R.F.=1)  AT K=   3, I=   2, J=  30
     1 CALLS TO GCG PACKAGE FOR TRANSPORT TIME STEP   5 IN FLOW TIME STEP  13 STRESS PERIOD   2
    22 TOTAL ITERATIONS
0WARNING: NUMERICAL OSCILLATION ENCOUNTERED
 ONE OR MORE CELL CONCENTRATIONS LESS THAN CRHOREF
 SMALLEST DENSITY =  0.100E+04
 AT CELL (I,J,K) = (   3,  65,  22)
>>>>>>> Stashed changes

 
 SOLVING FOR HEAD 
 FLOW MODEL IS TRANSIENT
 FLOW MODEL CONTAINS CONSTANT-HEAD CELLS


 MAXIMUM STEPSIZE DURING WHICH ANY PARTICLE CANNOT MOVE MORE THAN ONE CELL
<<<<<<< Updated upstream
 = 0.1637    (WHEN MIN. R.F.=1)  AT K=   3, I=   2, J=  29

 MAXIMUM STEPSIZE WHICH MEETS STABILITY CRITERION OF THE ADVECTION TERM
 (FOR PURE FINITE-DIFFERENCE OPTION, MIXELM=0) 
 = 0.1135    (WHEN MIN. R.F.=1)  AT K=   3, I=   2, J=  28
=======
 = 0.1873    (WHEN MIN. R.F.=1)  AT K=   3, I=   2, J=  31

 MAXIMUM STEPSIZE WHICH MEETS STABILITY CRITERION OF THE ADVECTION TERM
 (FOR PURE FINITE-DIFFERENCE OPTION, MIXELM=0) 
 = 0.1251    (WHEN MIN. R.F.=1)  AT K=   3, I=   2, J=  30
>>>>>>> Stashed changes


 TOTAL NUMBER OF POINT SOURCES/SINKS PRESENT IN THE FLOW MODEL =   240

 MAXIMUM STEPSIZE WHICH MEETS STABILITY CRITERION OF THE SINK & SOURCE TERM
 = 0.1000E+31(WHEN MIN. R.F.=1)  AT K=   0, I=   0, J=   0

 MAXIMUM STEPSIZE WHICH MEETS STABILITY CRITERION OF THE DISPERSION TERM
<<<<<<< Updated upstream
 = 0.6212E-02(WHEN MIN. R.F.=1)  AT K=   3, I=   2, J=  31
     1 CALLS TO GCG PACKAGE FOR TRANSPORT TIME STEP   3 IN FLOW TIME STEP  12 STRESS PERIOD   2
    20 TOTAL ITERATIONS
0WARNING: NUMERICAL OSCILLATION ENCOUNTERED
 ONE OR MORE CELL CONCENTRATIONS LESS THAN CRHOREF
 SMALLEST DENSITY =  0.100E+04
 AT CELL (I,J,K) = (   1,  43,  26)
=======
 = 0.6715E-02(WHEN MIN. R.F.=1)  AT K=   3, I=   2, J=  30
     1 CALLS TO GCG PACKAGE FOR TRANSPORT TIME STEP   6 IN FLOW TIME STEP  13 STRESS PERIOD   2
    22 TOTAL ITERATIONS
0WARNING: NUMERICAL OSCILLATION ENCOUNTERED
 ONE OR MORE CELL CONCENTRATIONS LESS THAN CRHOREF
 SMALLEST DENSITY =  0.100E+04
 AT CELL (I,J,K) = (   3,  65,  22)
>>>>>>> Stashed changes

 
 SOLVING FOR HEAD 
 FLOW MODEL IS TRANSIENT
 FLOW MODEL CONTAINS CONSTANT-HEAD CELLS


 MAXIMUM STEPSIZE DURING WHICH ANY PARTICLE CANNOT MOVE MORE THAN ONE CELL
<<<<<<< Updated upstream
 = 0.1637    (WHEN MIN. R.F.=1)  AT K=   3, I=   2, J=  29

 MAXIMUM STEPSIZE WHICH MEETS STABILITY CRITERION OF THE ADVECTION TERM
 (FOR PURE FINITE-DIFFERENCE OPTION, MIXELM=0) 
 = 0.1135    (WHEN MIN. R.F.=1)  AT K=   3, I=   2, J=  28
=======
 = 0.1873    (WHEN MIN. R.F.=1)  AT K=   3, I=   2, J=  31

 MAXIMUM STEPSIZE WHICH MEETS STABILITY CRITERION OF THE ADVECTION TERM
 (FOR PURE FINITE-DIFFERENCE OPTION, MIXELM=0) 
 = 0.1251    (WHEN MIN. R.F.=1)  AT K=   3, I=   2, J=  30
>>>>>>> Stashed changes


 TOTAL NUMBER OF POINT SOURCES/SINKS PRESENT IN THE FLOW MODEL =   240

 MAXIMUM STEPSIZE WHICH MEETS STABILITY CRITERION OF THE SINK & SOURCE TERM
 = 0.1000E+31(WHEN MIN. R.F.=1)  AT K=   0, I=   0, J=   0

 MAXIMUM STEPSIZE WHICH MEETS STABILITY CRITERION OF THE DISPERSION TERM
<<<<<<< Updated upstream
 = 0.6211E-02(WHEN MIN. R.F.=1)  AT K=   3, I=   2, J=  31
     1 CALLS TO GCG PACKAGE FOR TRANSPORT TIME STEP   4 IN FLOW TIME STEP  12 STRESS PERIOD   2
    20 TOTAL ITERATIONS
0WARNING: NUMERICAL OSCILLATION ENCOUNTERED
 ONE OR MORE CELL CONCENTRATIONS LESS THAN CRHOREF
 SMALLEST DENSITY =  0.100E+04
 AT CELL (I,J,K) = (   1,  43,  26)
=======
 = 0.6715E-02(WHEN MIN. R.F.=1)  AT K=   3, I=   2, J=  30
     1 CALLS TO GCG PACKAGE FOR TRANSPORT TIME STEP   7 IN FLOW TIME STEP  13 STRESS PERIOD   2
    22 TOTAL ITERATIONS
0WARNING: NUMERICAL OSCILLATION ENCOUNTERED
 ONE OR MORE CELL CONCENTRATIONS LESS THAN CRHOREF
 SMALLEST DENSITY =  0.100E+04
 AT CELL (I,J,K) = (   3,  65,  22)
>>>>>>> Stashed changes

 
 SOLVING FOR HEAD 
 FLOW MODEL IS TRANSIENT
 FLOW MODEL CONTAINS CONSTANT-HEAD CELLS


 MAXIMUM STEPSIZE DURING WHICH ANY PARTICLE CANNOT MOVE MORE THAN ONE CELL
<<<<<<< Updated upstream
 = 0.1637    (WHEN MIN. R.F.=1)  AT K=   3, I=   2, J=  29

 MAXIMUM STEPSIZE WHICH MEETS STABILITY CRITERION OF THE ADVECTION TERM
 (FOR PURE FINITE-DIFFERENCE OPTION, MIXELM=0) 
 = 0.1135    (WHEN MIN. R.F.=1)  AT K=   3, I=   2, J=  28
=======
 = 0.1873    (WHEN MIN. R.F.=1)  AT K=   3, I=   2, J=  31

 MAXIMUM STEPSIZE WHICH MEETS STABILITY CRITERION OF THE ADVECTION TERM
 (FOR PURE FINITE-DIFFERENCE OPTION, MIXELM=0) 
 = 0.1251    (WHEN MIN. R.F.=1)  AT K=   3, I=   2, J=  30
>>>>>>> Stashed changes


 TOTAL NUMBER OF POINT SOURCES/SINKS PRESENT IN THE FLOW MODEL =   240

 MAXIMUM STEPSIZE WHICH MEETS STABILITY CRITERION OF THE SINK & SOURCE TERM
 = 0.1000E+31(WHEN MIN. R.F.=1)  AT K=   0, I=   0, J=   0

 MAXIMUM STEPSIZE WHICH MEETS STABILITY CRITERION OF THE DISPERSION TERM
<<<<<<< Updated upstream
 = 0.6211E-02(WHEN MIN. R.F.=1)  AT K=   3, I=   2, J=  31
     1 CALLS TO GCG PACKAGE FOR TRANSPORT TIME STEP   5 IN FLOW TIME STEP  12 STRESS PERIOD   2
    20 TOTAL ITERATIONS
0WARNING: NUMERICAL OSCILLATION ENCOUNTERED
 ONE OR MORE CELL CONCENTRATIONS LESS THAN CRHOREF
 SMALLEST DENSITY =  0.100E+04
 AT CELL (I,J,K) = (   1,  40,  27)
=======
 = 0.6715E-02(WHEN MIN. R.F.=1)  AT K=   3, I=   2, J=  30
     1 CALLS TO GCG PACKAGE FOR TRANSPORT TIME STEP   8 IN FLOW TIME STEP  13 STRESS PERIOD   2
     8 TOTAL ITERATIONS
  MAXIMUM CONCENTRATION CHANGES FOR EACH ITERATION:
  MAX. CHANGE LAYER,ROW,COL MAX. CHANGE LAYER,ROW,COL MAX. CHANGE LAYER,ROW,COL MAX. CHANGE LAYER,ROW,COL MAX. CHANGE LAYER,ROW,COL
 ------------------------------------------------------------------------------------------------------------------------------------
   0.5369E-03 ( 13,  3, 46)  0.6244E-04 (  6,  1, 52)  0.1813E-04 (  4,  2, 44)  0.6692E-05 (  3,  2, 37)  0.1621E-05 (  4,  2, 37)
   0.5217E-06 (  3,  1, 31)  0.1294E-06 (  4,  3, 27)  0.4771E-07 (  3,  2, 41)
 UBDSV1 SAVING "         STORAGE" ON UNIT  53 AT TIME STEP 13, STRESS PERIOD   2
 UBDSV2 SAVING "   CONSTANT HEAD" ON UNIT  53 AT TIME STEP 13, STRESS PERIOD   2
 UBDSV1 SAVING "FLOW RIGHT FACE " ON UNIT  53 AT TIME STEP 13, STRESS PERIOD   2
 UBDSV1 SAVING "FLOW FRONT FACE " ON UNIT  53 AT TIME STEP 13, STRESS PERIOD   2
 UBDSV1 SAVING "FLOW LOWER FACE " ON UNIT  53 AT TIME STEP 13, STRESS PERIOD   2
 UBDSV1 SAVING "            DCDT" ON UNIT  53 AT TIME STEP 13, STRESS PERIOD   2
0WARNING: NUMERICAL OSCILLATION ENCOUNTERED
 ONE OR MORE CELL CONCENTRATIONS LESS THAN CRHOREF
 SMALLEST DENSITY =  0.100E+04
 AT CELL (I,J,K) = (   3,  65,  22)


 HEAD WILL BE SAVED ON UNIT   51 AT END OF TIME STEP  13, STRESS PERIOD    2


                                          ================================================
                                                         FROM TIME =   14.000     TO    15.000    
>>>>>>> Stashed changes

 
 SOLVING FOR HEAD 
 FLOW MODEL IS TRANSIENT
 FLOW MODEL CONTAINS CONSTANT-HEAD CELLS


 MAXIMUM STEPSIZE DURING WHICH ANY PARTICLE CANNOT MOVE MORE THAN ONE CELL
<<<<<<< Updated upstream
 = 0.1637    (WHEN MIN. R.F.=1)  AT K=   3, I=   2, J=  29

 MAXIMUM STEPSIZE WHICH MEETS STABILITY CRITERION OF THE ADVECTION TERM
 (FOR PURE FINITE-DIFFERENCE OPTION, MIXELM=0) 
 = 0.1135    (WHEN MIN. R.F.=1)  AT K=   3, I=   2, J=  28
=======
 = 0.1873    (WHEN MIN. R.F.=1)  AT K=   3, I=   2, J=  31

 MAXIMUM STEPSIZE WHICH MEETS STABILITY CRITERION OF THE ADVECTION TERM
 (FOR PURE FINITE-DIFFERENCE OPTION, MIXELM=0) 
 = 0.1251    (WHEN MIN. R.F.=1)  AT K=   3, I=   2, J=  30
>>>>>>> Stashed changes


 TOTAL NUMBER OF POINT SOURCES/SINKS PRESENT IN THE FLOW MODEL =   240

 MAXIMUM STEPSIZE WHICH MEETS STABILITY CRITERION OF THE SINK & SOURCE TERM
 = 0.1000E+31(WHEN MIN. R.F.=1)  AT K=   0, I=   0, J=   0

 MAXIMUM STEPSIZE WHICH MEETS STABILITY CRITERION OF THE DISPERSION TERM
<<<<<<< Updated upstream
 = 0.6211E-02(WHEN MIN. R.F.=1)  AT K=   3, I=   2, J=  31
     1 CALLS TO GCG PACKAGE FOR TRANSPORT TIME STEP   6 IN FLOW TIME STEP  12 STRESS PERIOD   2
    20 TOTAL ITERATIONS
0WARNING: NUMERICAL OSCILLATION ENCOUNTERED
 ONE OR MORE CELL CONCENTRATIONS LESS THAN CRHOREF
 SMALLEST DENSITY =  0.100E+04
 AT CELL (I,J,K) = (   1,  40,  27)
=======
 = 0.6715E-02(WHEN MIN. R.F.=1)  AT K=   3, I=   2, J=  30


     1 CALLS TO GCG PACKAGE FOR TRANSPORT TIME STEP   1 IN FLOW TIME STEP  14 STRESS PERIOD   2
    22 TOTAL ITERATIONS

 OUTPUT CONTROL FOR STRESS PERIOD    2   TIME STEP  14
    SAVE HEAD FOR ALL LAYERS
    SAVE BUDGET
0WARNING: NUMERICAL OSCILLATION ENCOUNTERED
 ONE OR MORE CELL CONCENTRATIONS LESS THAN CRHOREF
 SMALLEST DENSITY =  0.100E+04
 AT CELL (I,J,K) = (   3,  65,  22)
>>>>>>> Stashed changes

 
 SOLVING FOR HEAD 
 FLOW MODEL IS TRANSIENT
 FLOW MODEL CONTAINS CONSTANT-HEAD CELLS


 MAXIMUM STEPSIZE DURING WHICH ANY PARTICLE CANNOT MOVE MORE THAN ONE CELL
<<<<<<< Updated upstream
 = 0.1637    (WHEN MIN. R.F.=1)  AT K=   3, I=   2, J=  29

 MAXIMUM STEPSIZE WHICH MEETS STABILITY CRITERION OF THE ADVECTION TERM
 (FOR PURE FINITE-DIFFERENCE OPTION, MIXELM=0) 
 = 0.1135    (WHEN MIN. R.F.=1)  AT K=   3, I=   2, J=  28
=======
 = 0.1873    (WHEN MIN. R.F.=1)  AT K=   3, I=   2, J=  31

 MAXIMUM STEPSIZE WHICH MEETS STABILITY CRITERION OF THE ADVECTION TERM
 (FOR PURE FINITE-DIFFERENCE OPTION, MIXELM=0) 
 = 0.1251    (WHEN MIN. R.F.=1)  AT K=   3, I=   2, J=  30
>>>>>>> Stashed changes


 TOTAL NUMBER OF POINT SOURCES/SINKS PRESENT IN THE FLOW MODEL =   240

 MAXIMUM STEPSIZE WHICH MEETS STABILITY CRITERION OF THE SINK & SOURCE TERM
 = 0.1000E+31(WHEN MIN. R.F.=1)  AT K=   0, I=   0, J=   0

 MAXIMUM STEPSIZE WHICH MEETS STABILITY CRITERION OF THE DISPERSION TERM
<<<<<<< Updated upstream
 = 0.6211E-02(WHEN MIN. R.F.=1)  AT K=   3, I=   2, J=  31
     1 CALLS TO GCG PACKAGE FOR TRANSPORT TIME STEP   7 IN FLOW TIME STEP  12 STRESS PERIOD   2
    20 TOTAL ITERATIONS
0WARNING: NUMERICAL OSCILLATION ENCOUNTERED
 ONE OR MORE CELL CONCENTRATIONS LESS THAN CRHOREF
 SMALLEST DENSITY =  0.100E+04
 AT CELL (I,J,K) = (   1,  40,  27)
=======
 = 0.6715E-02(WHEN MIN. R.F.=1)  AT K=   3, I=   2, J=  30
     1 CALLS TO GCG PACKAGE FOR TRANSPORT TIME STEP   2 IN FLOW TIME STEP  14 STRESS PERIOD   2
    22 TOTAL ITERATIONS
0WARNING: NUMERICAL OSCILLATION ENCOUNTERED
 ONE OR MORE CELL CONCENTRATIONS LESS THAN CRHOREF
 SMALLEST DENSITY =  0.100E+04
 AT CELL (I,J,K) = (   3,  65,  22)
>>>>>>> Stashed changes

 
 SOLVING FOR HEAD 
 FLOW MODEL IS TRANSIENT
 FLOW MODEL CONTAINS CONSTANT-HEAD CELLS


 MAXIMUM STEPSIZE DURING WHICH ANY PARTICLE CANNOT MOVE MORE THAN ONE CELL
<<<<<<< Updated upstream
 = 0.1637    (WHEN MIN. R.F.=1)  AT K=   3, I=   2, J=  29

 MAXIMUM STEPSIZE WHICH MEETS STABILITY CRITERION OF THE ADVECTION TERM
 (FOR PURE FINITE-DIFFERENCE OPTION, MIXELM=0) 
 = 0.1135    (WHEN MIN. R.F.=1)  AT K=   3, I=   2, J=  28
=======
 = 0.1873    (WHEN MIN. R.F.=1)  AT K=   3, I=   2, J=  31

 MAXIMUM STEPSIZE WHICH MEETS STABILITY CRITERION OF THE ADVECTION TERM
 (FOR PURE FINITE-DIFFERENCE OPTION, MIXELM=0) 
 = 0.1250    (WHEN MIN. R.F.=1)  AT K=   3, I=   2, J=  30
>>>>>>> Stashed changes


 TOTAL NUMBER OF POINT SOURCES/SINKS PRESENT IN THE FLOW MODEL =   240

 MAXIMUM STEPSIZE WHICH MEETS STABILITY CRITERION OF THE SINK & SOURCE TERM
 = 0.1000E+31(WHEN MIN. R.F.=1)  AT K=   0, I=   0, J=   0

 MAXIMUM STEPSIZE WHICH MEETS STABILITY CRITERION OF THE DISPERSION TERM
<<<<<<< Updated upstream
 = 0.6211E-02(WHEN MIN. R.F.=1)  AT K=   3, I=   2, J=  31
     1 CALLS TO GCG PACKAGE FOR TRANSPORT TIME STEP   8 IN FLOW TIME STEP  12 STRESS PERIOD   2
    20 TOTAL ITERATIONS
0WARNING: NUMERICAL OSCILLATION ENCOUNTERED
 ONE OR MORE CELL CONCENTRATIONS LESS THAN CRHOREF
 SMALLEST DENSITY =  0.100E+04
 AT CELL (I,J,K) = (   1,  40,  27)
=======
 = 0.6715E-02(WHEN MIN. R.F.=1)  AT K=   3, I=   2, J=  30
     1 CALLS TO GCG PACKAGE FOR TRANSPORT TIME STEP   3 IN FLOW TIME STEP  14 STRESS PERIOD   2
    22 TOTAL ITERATIONS
0WARNING: NUMERICAL OSCILLATION ENCOUNTERED
 ONE OR MORE CELL CONCENTRATIONS LESS THAN CRHOREF
 SMALLEST DENSITY =  0.100E+04
 AT CELL (I,J,K) = (   3,  65,  22)
>>>>>>> Stashed changes

 
 SOLVING FOR HEAD 
 FLOW MODEL IS TRANSIENT
 FLOW MODEL CONTAINS CONSTANT-HEAD CELLS


 MAXIMUM STEPSIZE DURING WHICH ANY PARTICLE CANNOT MOVE MORE THAN ONE CELL
<<<<<<< Updated upstream
 = 0.1637    (WHEN MIN. R.F.=1)  AT K=   3, I=   2, J=  29

 MAXIMUM STEPSIZE WHICH MEETS STABILITY CRITERION OF THE ADVECTION TERM
 (FOR PURE FINITE-DIFFERENCE OPTION, MIXELM=0) 
 = 0.1135    (WHEN MIN. R.F.=1)  AT K=   3, I=   2, J=  28
=======
 = 0.1873    (WHEN MIN. R.F.=1)  AT K=   3, I=   2, J=  31

 MAXIMUM STEPSIZE WHICH MEETS STABILITY CRITERION OF THE ADVECTION TERM
 (FOR PURE FINITE-DIFFERENCE OPTION, MIXELM=0) 
 = 0.1250    (WHEN MIN. R.F.=1)  AT K=   3, I=   2, J=  30
>>>>>>> Stashed changes


 TOTAL NUMBER OF POINT SOURCES/SINKS PRESENT IN THE FLOW MODEL =   240

 MAXIMUM STEPSIZE WHICH MEETS STABILITY CRITERION OF THE SINK & SOURCE TERM
 = 0.1000E+31(WHEN MIN. R.F.=1)  AT K=   0, I=   0, J=   0

 MAXIMUM STEPSIZE WHICH MEETS STABILITY CRITERION OF THE DISPERSION TERM
<<<<<<< Updated upstream
 = 0.6211E-02(WHEN MIN. R.F.=1)  AT K=   3, I=   2, J=  31
     1 CALLS TO GCG PACKAGE FOR TRANSPORT TIME STEP   9 IN FLOW TIME STEP  12 STRESS PERIOD   2
     9 TOTAL ITERATIONS
  MAXIMUM CONCENTRATION CHANGES FOR EACH ITERATION:
  MAX. CHANGE LAYER,ROW,COL MAX. CHANGE LAYER,ROW,COL MAX. CHANGE LAYER,ROW,COL MAX. CHANGE LAYER,ROW,COL MAX. CHANGE LAYER,ROW,COL
 ------------------------------------------------------------------------------------------------------------------------------------
   0.6077E-03 ( 10,  3, 53)  0.9138E-04 (  6,  1, 56)  0.2013E-04 (  4,  2, 42)  0.7881E-05 (  3,  3, 31)  0.3159E-05 (  3,  3, 30)
   0.1461E-05 (  3,  3, 31)  0.3576E-06 (  3,  3, 30)  0.1101E-06 (  3,  3, 29)  0.3820E-07 (  4,  3, 29)
0WARNING: NUMERICAL OSCILLATION ENCOUNTERED
 ONE OR MORE CELL CONCENTRATIONS LESS THAN CRHOREF
 SMALLEST DENSITY =  0.100E+04
 AT CELL (I,J,K) = (   1,  40,  27)



                                          ================================================
                                                         FROM TIME =   13.000     TO    14.000    
=======
 = 0.6715E-02(WHEN MIN. R.F.=1)  AT K=   3, I=   2, J=  30
     1 CALLS TO GCG PACKAGE FOR TRANSPORT TIME STEP   4 IN FLOW TIME STEP  14 STRESS PERIOD   2
    22 TOTAL ITERATIONS
0WARNING: NUMERICAL OSCILLATION ENCOUNTERED
 ONE OR MORE CELL CONCENTRATIONS LESS THAN CRHOREF
 SMALLEST DENSITY =  0.100E+04
 AT CELL (I,J,K) = (   3,  65,  22)
>>>>>>> Stashed changes

 
 SOLVING FOR HEAD 
 FLOW MODEL IS TRANSIENT
 FLOW MODEL CONTAINS CONSTANT-HEAD CELLS


 MAXIMUM STEPSIZE DURING WHICH ANY PARTICLE CANNOT MOVE MORE THAN ONE CELL
<<<<<<< Updated upstream
 = 0.1637    (WHEN MIN. R.F.=1)  AT K=   3, I=   2, J=  29

 MAXIMUM STEPSIZE WHICH MEETS STABILITY CRITERION OF THE ADVECTION TERM
 (FOR PURE FINITE-DIFFERENCE OPTION, MIXELM=0) 
 = 0.1135    (WHEN MIN. R.F.=1)  AT K=   3, I=   2, J=  28
=======
 = 0.1873    (WHEN MIN. R.F.=1)  AT K=   3, I=   2, J=  31

 MAXIMUM STEPSIZE WHICH MEETS STABILITY CRITERION OF THE ADVECTION TERM
 (FOR PURE FINITE-DIFFERENCE OPTION, MIXELM=0) 
 = 0.1250    (WHEN MIN. R.F.=1)  AT K=   3, I=   2, J=  30
>>>>>>> Stashed changes


 TOTAL NUMBER OF POINT SOURCES/SINKS PRESENT IN THE FLOW MODEL =   240

 MAXIMUM STEPSIZE WHICH MEETS STABILITY CRITERION OF THE SINK & SOURCE TERM
 = 0.1000E+31(WHEN MIN. R.F.=1)  AT K=   0, I=   0, J=   0

 MAXIMUM STEPSIZE WHICH MEETS STABILITY CRITERION OF THE DISPERSION TERM
<<<<<<< Updated upstream
 = 0.6211E-02(WHEN MIN. R.F.=1)  AT K=   3, I=   2, J=  31


     1 CALLS TO GCG PACKAGE FOR TRANSPORT TIME STEP   1 IN FLOW TIME STEP  13 STRESS PERIOD   2
    20 TOTAL ITERATIONS

 NO OUTPUT CONTROL FOR STRESS PERIOD    2   TIME STEP  13
0WARNING: NUMERICAL OSCILLATION ENCOUNTERED
 ONE OR MORE CELL CONCENTRATIONS LESS THAN CRHOREF
 SMALLEST DENSITY =  0.100E+04
 AT CELL (I,J,K) = (   1,  40,  27)
=======
 = 0.6715E-02(WHEN MIN. R.F.=1)  AT K=   3, I=   2, J=  30
     1 CALLS TO GCG PACKAGE FOR TRANSPORT TIME STEP   5 IN FLOW TIME STEP  14 STRESS PERIOD   2
    22 TOTAL ITERATIONS
0WARNING: NUMERICAL OSCILLATION ENCOUNTERED
 ONE OR MORE CELL CONCENTRATIONS LESS THAN CRHOREF
 SMALLEST DENSITY =  0.100E+04
 AT CELL (I,J,K) = (   3,  65,  22)
>>>>>>> Stashed changes

 
 SOLVING FOR HEAD 
 FLOW MODEL IS TRANSIENT
 FLOW MODEL CONTAINS CONSTANT-HEAD CELLS


 MAXIMUM STEPSIZE DURING WHICH ANY PARTICLE CANNOT MOVE MORE THAN ONE CELL
<<<<<<< Updated upstream
 = 0.1637    (WHEN MIN. R.F.=1)  AT K=   3, I=   2, J=  29

 MAXIMUM STEPSIZE WHICH MEETS STABILITY CRITERION OF THE ADVECTION TERM
 (FOR PURE FINITE-DIFFERENCE OPTION, MIXELM=0) 
 = 0.1135    (WHEN MIN. R.F.=1)  AT K=   3, I=   2, J=  28
=======
 = 0.1873    (WHEN MIN. R.F.=1)  AT K=   3, I=   2, J=  31

 MAXIMUM STEPSIZE WHICH MEETS STABILITY CRITERION OF THE ADVECTION TERM
 (FOR PURE FINITE-DIFFERENCE OPTION, MIXELM=0) 
 = 0.1250    (WHEN MIN. R.F.=1)  AT K=   3, I=   2, J=  30
>>>>>>> Stashed changes


 TOTAL NUMBER OF POINT SOURCES/SINKS PRESENT IN THE FLOW MODEL =   240

 MAXIMUM STEPSIZE WHICH MEETS STABILITY CRITERION OF THE SINK & SOURCE TERM
 = 0.1000E+31(WHEN MIN. R.F.=1)  AT K=   0, I=   0, J=   0

 MAXIMUM STEPSIZE WHICH MEETS STABILITY CRITERION OF THE DISPERSION TERM
<<<<<<< Updated upstream
 = 0.6211E-02(WHEN MIN. R.F.=1)  AT K=   3, I=   2, J=  31
     1 CALLS TO GCG PACKAGE FOR TRANSPORT TIME STEP   2 IN FLOW TIME STEP  13 STRESS PERIOD   2
    20 TOTAL ITERATIONS
0WARNING: NUMERICAL OSCILLATION ENCOUNTERED
 ONE OR MORE CELL CONCENTRATIONS LESS THAN CRHOREF
 SMALLEST DENSITY =  0.100E+04
 AT CELL (I,J,K) = (   1,  40,  27)
=======
 = 0.6714E-02(WHEN MIN. R.F.=1)  AT K=   3, I=   2, J=  30
     1 CALLS TO GCG PACKAGE FOR TRANSPORT TIME STEP   6 IN FLOW TIME STEP  14 STRESS PERIOD   2
    22 TOTAL ITERATIONS
0WARNING: NUMERICAL OSCILLATION ENCOUNTERED
 ONE OR MORE CELL CONCENTRATIONS LESS THAN CRHOREF
 SMALLEST DENSITY =  0.100E+04
 AT CELL (I,J,K) = (   3,  65,  22)
>>>>>>> Stashed changes

 
 SOLVING FOR HEAD 
 FLOW MODEL IS TRANSIENT
 FLOW MODEL CONTAINS CONSTANT-HEAD CELLS


 MAXIMUM STEPSIZE DURING WHICH ANY PARTICLE CANNOT MOVE MORE THAN ONE CELL
<<<<<<< Updated upstream
 = 0.1637    (WHEN MIN. R.F.=1)  AT K=   3, I=   2, J=  29

 MAXIMUM STEPSIZE WHICH MEETS STABILITY CRITERION OF THE ADVECTION TERM
 (FOR PURE FINITE-DIFFERENCE OPTION, MIXELM=0) 
 = 0.1135    (WHEN MIN. R.F.=1)  AT K=   3, I=   2, J=  28
=======
 = 0.1873    (WHEN MIN. R.F.=1)  AT K=   3, I=   2, J=  31

 MAXIMUM STEPSIZE WHICH MEETS STABILITY CRITERION OF THE ADVECTION TERM
 (FOR PURE FINITE-DIFFERENCE OPTION, MIXELM=0) 
 = 0.1250    (WHEN MIN. R.F.=1)  AT K=   3, I=   2, J=  30
>>>>>>> Stashed changes


 TOTAL NUMBER OF POINT SOURCES/SINKS PRESENT IN THE FLOW MODEL =   240

 MAXIMUM STEPSIZE WHICH MEETS STABILITY CRITERION OF THE SINK & SOURCE TERM
 = 0.1000E+31(WHEN MIN. R.F.=1)  AT K=   0, I=   0, J=   0

 MAXIMUM STEPSIZE WHICH MEETS STABILITY CRITERION OF THE DISPERSION TERM
<<<<<<< Updated upstream
 = 0.6211E-02(WHEN MIN. R.F.=1)  AT K=   3, I=   2, J=  31
     1 CALLS TO GCG PACKAGE FOR TRANSPORT TIME STEP   3 IN FLOW TIME STEP  13 STRESS PERIOD   2
    19 TOTAL ITERATIONS
0WARNING: NUMERICAL OSCILLATION ENCOUNTERED
 ONE OR MORE CELL CONCENTRATIONS LESS THAN CRHOREF
 SMALLEST DENSITY =  0.100E+04
 AT CELL (I,J,K) = (   3,  66,  21)
=======
 = 0.6714E-02(WHEN MIN. R.F.=1)  AT K=   3, I=   2, J=  30
     1 CALLS TO GCG PACKAGE FOR TRANSPORT TIME STEP   7 IN FLOW TIME STEP  14 STRESS PERIOD   2
    22 TOTAL ITERATIONS
0WARNING: NUMERICAL OSCILLATION ENCOUNTERED
 ONE OR MORE CELL CONCENTRATIONS LESS THAN CRHOREF
 SMALLEST DENSITY =  0.100E+04
 AT CELL (I,J,K) = (   3,  65,  22)
>>>>>>> Stashed changes

 
 SOLVING FOR HEAD 
 FLOW MODEL IS TRANSIENT
 FLOW MODEL CONTAINS CONSTANT-HEAD CELLS


 MAXIMUM STEPSIZE DURING WHICH ANY PARTICLE CANNOT MOVE MORE THAN ONE CELL
<<<<<<< Updated upstream
 = 0.1637    (WHEN MIN. R.F.=1)  AT K=   3, I=   2, J=  29

 MAXIMUM STEPSIZE WHICH MEETS STABILITY CRITERION OF THE ADVECTION TERM
 (FOR PURE FINITE-DIFFERENCE OPTION, MIXELM=0) 
 = 0.1135    (WHEN MIN. R.F.=1)  AT K=   3, I=   2, J=  28
=======
 = 0.1873    (WHEN MIN. R.F.=1)  AT K=   3, I=   2, J=  31

 MAXIMUM STEPSIZE WHICH MEETS STABILITY CRITERION OF THE ADVECTION TERM
 (FOR PURE FINITE-DIFFERENCE OPTION, MIXELM=0) 
 = 0.1250    (WHEN MIN. R.F.=1)  AT K=   3, I=   2, J=  30
>>>>>>> Stashed changes


 TOTAL NUMBER OF POINT SOURCES/SINKS PRESENT IN THE FLOW MODEL =   240

 MAXIMUM STEPSIZE WHICH MEETS STABILITY CRITERION OF THE SINK & SOURCE TERM
 = 0.1000E+31(WHEN MIN. R.F.=1)  AT K=   0, I=   0, J=   0

 MAXIMUM STEPSIZE WHICH MEETS STABILITY CRITERION OF THE DISPERSION TERM
<<<<<<< Updated upstream
 = 0.6211E-02(WHEN MIN. R.F.=1)  AT K=   3, I=   2, J=  31
     1 CALLS TO GCG PACKAGE FOR TRANSPORT TIME STEP   4 IN FLOW TIME STEP  13 STRESS PERIOD   2
    20 TOTAL ITERATIONS
0WARNING: NUMERICAL OSCILLATION ENCOUNTERED
 ONE OR MORE CELL CONCENTRATIONS LESS THAN CRHOREF
 SMALLEST DENSITY =  0.100E+04
 AT CELL (I,J,K) = (   3,  66,  21)
=======
 = 0.6714E-02(WHEN MIN. R.F.=1)  AT K=   3, I=   2, J=  30
     1 CALLS TO GCG PACKAGE FOR TRANSPORT TIME STEP   8 IN FLOW TIME STEP  14 STRESS PERIOD   2
     8 TOTAL ITERATIONS
  MAXIMUM CONCENTRATION CHANGES FOR EACH ITERATION:
  MAX. CHANGE LAYER,ROW,COL MAX. CHANGE LAYER,ROW,COL MAX. CHANGE LAYER,ROW,COL MAX. CHANGE LAYER,ROW,COL MAX. CHANGE LAYER,ROW,COL
 ------------------------------------------------------------------------------------------------------------------------------------
   0.5018E-03 ( 13,  3, 46)  0.5634E-04 (  6,  1, 52)  0.1606E-04 (  4,  2, 44)  0.5906E-05 (  3,  2, 37)  0.1424E-05 (  4,  2, 37)
   0.4676E-06 (  3,  1, 31)  0.1167E-06 (  4,  3, 27)  0.4280E-07 (  3,  2, 41)
 UBDSV1 SAVING "         STORAGE" ON UNIT  53 AT TIME STEP 14, STRESS PERIOD   2
 UBDSV2 SAVING "   CONSTANT HEAD" ON UNIT  53 AT TIME STEP 14, STRESS PERIOD   2
 UBDSV1 SAVING "FLOW RIGHT FACE " ON UNIT  53 AT TIME STEP 14, STRESS PERIOD   2
 UBDSV1 SAVING "FLOW FRONT FACE " ON UNIT  53 AT TIME STEP 14, STRESS PERIOD   2
 UBDSV1 SAVING "FLOW LOWER FACE " ON UNIT  53 AT TIME STEP 14, STRESS PERIOD   2
 UBDSV1 SAVING "            DCDT" ON UNIT  53 AT TIME STEP 14, STRESS PERIOD   2
0WARNING: NUMERICAL OSCILLATION ENCOUNTERED
 ONE OR MORE CELL CONCENTRATIONS LESS THAN CRHOREF
 SMALLEST DENSITY =  0.100E+04
 AT CELL (I,J,K) = (   3,  65,  22)


 HEAD WILL BE SAVED ON UNIT   51 AT END OF TIME STEP  14, STRESS PERIOD    2


                                          ================================================
                                                         FROM TIME =   15.000     TO    16.000    
>>>>>>> Stashed changes

 
 SOLVING FOR HEAD 
 FLOW MODEL IS TRANSIENT
 FLOW MODEL CONTAINS CONSTANT-HEAD CELLS


 MAXIMUM STEPSIZE DURING WHICH ANY PARTICLE CANNOT MOVE MORE THAN ONE CELL
<<<<<<< Updated upstream
 = 0.1637    (WHEN MIN. R.F.=1)  AT K=   3, I=   2, J=  29

 MAXIMUM STEPSIZE WHICH MEETS STABILITY CRITERION OF THE ADVECTION TERM
 (FOR PURE FINITE-DIFFERENCE OPTION, MIXELM=0) 
 = 0.1135    (WHEN MIN. R.F.=1)  AT K=   3, I=   2, J=  28
=======
 = 0.1873    (WHEN MIN. R.F.=1)  AT K=   3, I=   2, J=  31

 MAXIMUM STEPSIZE WHICH MEETS STABILITY CRITERION OF THE ADVECTION TERM
 (FOR PURE FINITE-DIFFERENCE OPTION, MIXELM=0) 
 = 0.1250    (WHEN MIN. R.F.=1)  AT K=   3, I=   2, J=  30
>>>>>>> Stashed changes


 TOTAL NUMBER OF POINT SOURCES/SINKS PRESENT IN THE FLOW MODEL =   240

 MAXIMUM STEPSIZE WHICH MEETS STABILITY CRITERION OF THE SINK & SOURCE TERM
 = 0.1000E+31(WHEN MIN. R.F.=1)  AT K=   0, I=   0, J=   0

 MAXIMUM STEPSIZE WHICH MEETS STABILITY CRITERION OF THE DISPERSION TERM
<<<<<<< Updated upstream
 = 0.6211E-02(WHEN MIN. R.F.=1)  AT K=   3, I=   2, J=  31
     1 CALLS TO GCG PACKAGE FOR TRANSPORT TIME STEP   5 IN FLOW TIME STEP  13 STRESS PERIOD   2
    19 TOTAL ITERATIONS
0WARNING: NUMERICAL OSCILLATION ENCOUNTERED
 ONE OR MORE CELL CONCENTRATIONS LESS THAN CRHOREF
 SMALLEST DENSITY =  0.100E+04
 AT CELL (I,J,K) = (   3,  66,  21)
=======
 = 0.6714E-02(WHEN MIN. R.F.=1)  AT K=   3, I=   2, J=  30


     1 CALLS TO GCG PACKAGE FOR TRANSPORT TIME STEP   1 IN FLOW TIME STEP  15 STRESS PERIOD   2
    22 TOTAL ITERATIONS

 OUTPUT CONTROL FOR STRESS PERIOD    2   TIME STEP  15
    SAVE HEAD FOR ALL LAYERS
    SAVE BUDGET
0WARNING: NUMERICAL OSCILLATION ENCOUNTERED
 ONE OR MORE CELL CONCENTRATIONS LESS THAN CRHOREF
 SMALLEST DENSITY =  0.100E+04
 AT CELL (I,J,K) = (   3,  65,  22)
>>>>>>> Stashed changes

 
 SOLVING FOR HEAD 
 FLOW MODEL IS TRANSIENT
 FLOW MODEL CONTAINS CONSTANT-HEAD CELLS


 MAXIMUM STEPSIZE DURING WHICH ANY PARTICLE CANNOT MOVE MORE THAN ONE CELL
<<<<<<< Updated upstream
 = 0.1637    (WHEN MIN. R.F.=1)  AT K=   3, I=   2, J=  29

 MAXIMUM STEPSIZE WHICH MEETS STABILITY CRITERION OF THE ADVECTION TERM
 (FOR PURE FINITE-DIFFERENCE OPTION, MIXELM=0) 
 = 0.1135    (WHEN MIN. R.F.=1)  AT K=   3, I=   2, J=  28
=======
 = 0.1873    (WHEN MIN. R.F.=1)  AT K=   3, I=   2, J=  31

 MAXIMUM STEPSIZE WHICH MEETS STABILITY CRITERION OF THE ADVECTION TERM
 (FOR PURE FINITE-DIFFERENCE OPTION, MIXELM=0) 
 = 0.1250    (WHEN MIN. R.F.=1)  AT K=   3, I=   2, J=  30
>>>>>>> Stashed changes


 TOTAL NUMBER OF POINT SOURCES/SINKS PRESENT IN THE FLOW MODEL =   240

 MAXIMUM STEPSIZE WHICH MEETS STABILITY CRITERION OF THE SINK & SOURCE TERM
 = 0.1000E+31(WHEN MIN. R.F.=1)  AT K=   0, I=   0, J=   0

 MAXIMUM STEPSIZE WHICH MEETS STABILITY CRITERION OF THE DISPERSION TERM
<<<<<<< Updated upstream
 = 0.6211E-02(WHEN MIN. R.F.=1)  AT K=   3, I=   2, J=  31
     1 CALLS TO GCG PACKAGE FOR TRANSPORT TIME STEP   6 IN FLOW TIME STEP  13 STRESS PERIOD   2
    19 TOTAL ITERATIONS
0WARNING: NUMERICAL OSCILLATION ENCOUNTERED
 ONE OR MORE CELL CONCENTRATIONS LESS THAN CRHOREF
 SMALLEST DENSITY =  0.100E+04
 AT CELL (I,J,K) = (   3,  66,  21)
=======
 = 0.6714E-02(WHEN MIN. R.F.=1)  AT K=   3, I=   2, J=  30
     1 CALLS TO GCG PACKAGE FOR TRANSPORT TIME STEP   2 IN FLOW TIME STEP  15 STRESS PERIOD   2
    22 TOTAL ITERATIONS
0WARNING: NUMERICAL OSCILLATION ENCOUNTERED
 ONE OR MORE CELL CONCENTRATIONS LESS THAN CRHOREF
 SMALLEST DENSITY =  0.100E+04
 AT CELL (I,J,K) = (   2,  58,  24)
>>>>>>> Stashed changes

 
 SOLVING FOR HEAD 
 FLOW MODEL IS TRANSIENT
 FLOW MODEL CONTAINS CONSTANT-HEAD CELLS


 MAXIMUM STEPSIZE DURING WHICH ANY PARTICLE CANNOT MOVE MORE THAN ONE CELL
<<<<<<< Updated upstream
 = 0.1636    (WHEN MIN. R.F.=1)  AT K=   3, I=   2, J=  29

 MAXIMUM STEPSIZE WHICH MEETS STABILITY CRITERION OF THE ADVECTION TERM
 (FOR PURE FINITE-DIFFERENCE OPTION, MIXELM=0) 
 = 0.1135    (WHEN MIN. R.F.=1)  AT K=   3, I=   2, J=  28
=======
 = 0.1873    (WHEN MIN. R.F.=1)  AT K=   3, I=   2, J=  31

 MAXIMUM STEPSIZE WHICH MEETS STABILITY CRITERION OF THE ADVECTION TERM
 (FOR PURE FINITE-DIFFERENCE OPTION, MIXELM=0) 
 = 0.1250    (WHEN MIN. R.F.=1)  AT K=   3, I=   2, J=  30
>>>>>>> Stashed changes


 TOTAL NUMBER OF POINT SOURCES/SINKS PRESENT IN THE FLOW MODEL =   240

 MAXIMUM STEPSIZE WHICH MEETS STABILITY CRITERION OF THE SINK & SOURCE TERM
 = 0.1000E+31(WHEN MIN. R.F.=1)  AT K=   0, I=   0, J=   0

 MAXIMUM STEPSIZE WHICH MEETS STABILITY CRITERION OF THE DISPERSION TERM
<<<<<<< Updated upstream
 = 0.6211E-02(WHEN MIN. R.F.=1)  AT K=   3, I=   2, J=  31
     1 CALLS TO GCG PACKAGE FOR TRANSPORT TIME STEP   7 IN FLOW TIME STEP  13 STRESS PERIOD   2
    19 TOTAL ITERATIONS
0WARNING: NUMERICAL OSCILLATION ENCOUNTERED
 ONE OR MORE CELL CONCENTRATIONS LESS THAN CRHOREF
 SMALLEST DENSITY =  0.100E+04
 AT CELL (I,J,K) = (   3,  66,  21)
=======
 = 0.6714E-02(WHEN MIN. R.F.=1)  AT K=   3, I=   2, J=  30
     1 CALLS TO GCG PACKAGE FOR TRANSPORT TIME STEP   3 IN FLOW TIME STEP  15 STRESS PERIOD   2
    22 TOTAL ITERATIONS
0WARNING: NUMERICAL OSCILLATION ENCOUNTERED
 ONE OR MORE CELL CONCENTRATIONS LESS THAN CRHOREF
 SMALLEST DENSITY =  0.100E+04
 AT CELL (I,J,K) = (   3,  66,  22)
>>>>>>> Stashed changes

 
 SOLVING FOR HEAD 
 FLOW MODEL IS TRANSIENT
 FLOW MODEL CONTAINS CONSTANT-HEAD CELLS


 MAXIMUM STEPSIZE DURING WHICH ANY PARTICLE CANNOT MOVE MORE THAN ONE CELL
<<<<<<< Updated upstream
 = 0.1636    (WHEN MIN. R.F.=1)  AT K=   3, I=   2, J=  29

 MAXIMUM STEPSIZE WHICH MEETS STABILITY CRITERION OF THE ADVECTION TERM
 (FOR PURE FINITE-DIFFERENCE OPTION, MIXELM=0) 
 = 0.1135    (WHEN MIN. R.F.=1)  AT K=   3, I=   2, J=  28
=======
 = 0.1873    (WHEN MIN. R.F.=1)  AT K=   3, I=   2, J=  31

 MAXIMUM STEPSIZE WHICH MEETS STABILITY CRITERION OF THE ADVECTION TERM
 (FOR PURE FINITE-DIFFERENCE OPTION, MIXELM=0) 
 = 0.1250    (WHEN MIN. R.F.=1)  AT K=   3, I=   2, J=  30
>>>>>>> Stashed changes


 TOTAL NUMBER OF POINT SOURCES/SINKS PRESENT IN THE FLOW MODEL =   240

 MAXIMUM STEPSIZE WHICH MEETS STABILITY CRITERION OF THE SINK & SOURCE TERM
 = 0.1000E+31(WHEN MIN. R.F.=1)  AT K=   0, I=   0, J=   0

 MAXIMUM STEPSIZE WHICH MEETS STABILITY CRITERION OF THE DISPERSION TERM
<<<<<<< Updated upstream
 = 0.6211E-02(WHEN MIN. R.F.=1)  AT K=   3, I=   2, J=  31
     1 CALLS TO GCG PACKAGE FOR TRANSPORT TIME STEP   8 IN FLOW TIME STEP  13 STRESS PERIOD   2
    19 TOTAL ITERATIONS
0WARNING: NUMERICAL OSCILLATION ENCOUNTERED
 ONE OR MORE CELL CONCENTRATIONS LESS THAN CRHOREF
 SMALLEST DENSITY =  0.100E+04
 AT CELL (I,J,K) = (   3,  66,  21)
=======
 = 0.6714E-02(WHEN MIN. R.F.=1)  AT K=   3, I=   2, J=  30
     1 CALLS TO GCG PACKAGE FOR TRANSPORT TIME STEP   4 IN FLOW TIME STEP  15 STRESS PERIOD   2
    22 TOTAL ITERATIONS
0WARNING: NUMERICAL OSCILLATION ENCOUNTERED
 ONE OR MORE CELL CONCENTRATIONS LESS THAN CRHOREF
 SMALLEST DENSITY =  0.100E+04
 AT CELL (I,J,K) = (   3,  58,  26)
>>>>>>> Stashed changes

 
 SOLVING FOR HEAD 
 FLOW MODEL IS TRANSIENT
 FLOW MODEL CONTAINS CONSTANT-HEAD CELLS


 MAXIMUM STEPSIZE DURING WHICH ANY PARTICLE CANNOT MOVE MORE THAN ONE CELL
<<<<<<< Updated upstream
 = 0.1636    (WHEN MIN. R.F.=1)  AT K=   3, I=   2, J=  29

 MAXIMUM STEPSIZE WHICH MEETS STABILITY CRITERION OF THE ADVECTION TERM
 (FOR PURE FINITE-DIFFERENCE OPTION, MIXELM=0) 
 = 0.1135    (WHEN MIN. R.F.=1)  AT K=   3, I=   2, J=  28
=======
 = 0.1873    (WHEN MIN. R.F.=1)  AT K=   3, I=   2, J=  31

 MAXIMUM STEPSIZE WHICH MEETS STABILITY CRITERION OF THE ADVECTION TERM
 (FOR PURE FINITE-DIFFERENCE OPTION, MIXELM=0) 
 = 0.1250    (WHEN MIN. R.F.=1)  AT K=   3, I=   2, J=  30
>>>>>>> Stashed changes


 TOTAL NUMBER OF POINT SOURCES/SINKS PRESENT IN THE FLOW MODEL =   240

 MAXIMUM STEPSIZE WHICH MEETS STABILITY CRITERION OF THE SINK & SOURCE TERM
 = 0.1000E+31(WHEN MIN. R.F.=1)  AT K=   0, I=   0, J=   0

 MAXIMUM STEPSIZE WHICH MEETS STABILITY CRITERION OF THE DISPERSION TERM
<<<<<<< Updated upstream
 = 0.6211E-02(WHEN MIN. R.F.=1)  AT K=   3, I=   2, J=  31
     1 CALLS TO GCG PACKAGE FOR TRANSPORT TIME STEP   9 IN FLOW TIME STEP  13 STRESS PERIOD   2
     9 TOTAL ITERATIONS
  MAXIMUM CONCENTRATION CHANGES FOR EACH ITERATION:
  MAX. CHANGE LAYER,ROW,COL MAX. CHANGE LAYER,ROW,COL MAX. CHANGE LAYER,ROW,COL MAX. CHANGE LAYER,ROW,COL MAX. CHANGE LAYER,ROW,COL
 ------------------------------------------------------------------------------------------------------------------------------------
   0.5821E-03 ( 12,  3, 53)  0.8276E-04 (  6,  1, 56)  0.1769E-04 (  4,  2, 43)  0.6978E-05 (  3,  3, 31)  0.2814E-05 (  3,  3, 30)
   0.1285E-05 (  3,  3, 31)  0.3234E-06 (  3,  3, 30)  0.1016E-06 (  3,  3, 29)  0.3449E-07 (  4,  3, 29)
0WARNING: NUMERICAL OSCILLATION ENCOUNTERED
 ONE OR MORE CELL CONCENTRATIONS LESS THAN CRHOREF
 SMALLEST DENSITY =  0.100E+04
 AT CELL (I,J,K) = (   3,  66,  21)



                                          ================================================
                                                         FROM TIME =   14.000     TO    15.000    
=======
 = 0.6714E-02(WHEN MIN. R.F.=1)  AT K=   3, I=   2, J=  30
     1 CALLS TO GCG PACKAGE FOR TRANSPORT TIME STEP   5 IN FLOW TIME STEP  15 STRESS PERIOD   2
    22 TOTAL ITERATIONS
0WARNING: NUMERICAL OSCILLATION ENCOUNTERED
 ONE OR MORE CELL CONCENTRATIONS LESS THAN CRHOREF
 SMALLEST DENSITY =  0.100E+04
 AT CELL (I,J,K) = (   3,  58,  26)
>>>>>>> Stashed changes

 
 SOLVING FOR HEAD 
 FLOW MODEL IS TRANSIENT
 FLOW MODEL CONTAINS CONSTANT-HEAD CELLS


 MAXIMUM STEPSIZE DURING WHICH ANY PARTICLE CANNOT MOVE MORE THAN ONE CELL
<<<<<<< Updated upstream
 = 0.1636    (WHEN MIN. R.F.=1)  AT K=   3, I=   2, J=  29

 MAXIMUM STEPSIZE WHICH MEETS STABILITY CRITERION OF THE ADVECTION TERM
 (FOR PURE FINITE-DIFFERENCE OPTION, MIXELM=0) 
 = 0.1135    (WHEN MIN. R.F.=1)  AT K=   3, I=   2, J=  28
=======
 = 0.1873    (WHEN MIN. R.F.=1)  AT K=   3, I=   2, J=  31

 MAXIMUM STEPSIZE WHICH MEETS STABILITY CRITERION OF THE ADVECTION TERM
 (FOR PURE FINITE-DIFFERENCE OPTION, MIXELM=0) 
 = 0.1250    (WHEN MIN. R.F.=1)  AT K=   3, I=   2, J=  30
>>>>>>> Stashed changes


 TOTAL NUMBER OF POINT SOURCES/SINKS PRESENT IN THE FLOW MODEL =   240

 MAXIMUM STEPSIZE WHICH MEETS STABILITY CRITERION OF THE SINK & SOURCE TERM
 = 0.1000E+31(WHEN MIN. R.F.=1)  AT K=   0, I=   0, J=   0

 MAXIMUM STEPSIZE WHICH MEETS STABILITY CRITERION OF THE DISPERSION TERM
<<<<<<< Updated upstream
 = 0.6211E-02(WHEN MIN. R.F.=1)  AT K=   3, I=   2, J=  31


     1 CALLS TO GCG PACKAGE FOR TRANSPORT TIME STEP   1 IN FLOW TIME STEP  14 STRESS PERIOD   2
    19 TOTAL ITERATIONS

 NO OUTPUT CONTROL FOR STRESS PERIOD    2   TIME STEP  14
0WARNING: NUMERICAL OSCILLATION ENCOUNTERED
 ONE OR MORE CELL CONCENTRATIONS LESS THAN CRHOREF
 SMALLEST DENSITY =  0.100E+04
 AT CELL (I,J,K) = (   1,  43,  27)

 
 SOLVING FOR HEAD 
 FLOW MODEL IS TRANSIENT
 FLOW MODEL CONTAINS CONSTANT-HEAD CELLS


 MAXIMUM STEPSIZE DURING WHICH ANY PARTICLE CANNOT MOVE MORE THAN ONE CELL
 = 0.1636    (WHEN MIN. R.F.=1)  AT K=   3, I=   2, J=  29

 MAXIMUM STEPSIZE WHICH MEETS STABILITY CRITERION OF THE ADVECTION TERM
 (FOR PURE FINITE-DIFFERENCE OPTION, MIXELM=0) 
 = 0.1135    (WHEN MIN. R.F.=1)  AT K=   3, I=   2, J=  28


 TOTAL NUMBER OF POINT SOURCES/SINKS PRESENT IN THE FLOW MODEL =   240

 MAXIMUM STEPSIZE WHICH MEETS STABILITY CRITERION OF THE SINK & SOURCE TERM
 = 0.1000E+31(WHEN MIN. R.F.=1)  AT K=   0, I=   0, J=   0

 MAXIMUM STEPSIZE WHICH MEETS STABILITY CRITERION OF THE DISPERSION TERM
 = 0.6211E-02(WHEN MIN. R.F.=1)  AT K=   3, I=   2, J=  31
     1 CALLS TO GCG PACKAGE FOR TRANSPORT TIME STEP   2 IN FLOW TIME STEP  14 STRESS PERIOD   2
    19 TOTAL ITERATIONS
0WARNING: NUMERICAL OSCILLATION ENCOUNTERED
 ONE OR MORE CELL CONCENTRATIONS LESS THAN CRHOREF
 SMALLEST DENSITY =  0.100E+04
 AT CELL (I,J,K) = (   1,  43,  27)
=======
 = 0.6714E-02(WHEN MIN. R.F.=1)  AT K=   3, I=   2, J=  30
     1 CALLS TO GCG PACKAGE FOR TRANSPORT TIME STEP   6 IN FLOW TIME STEP  15 STRESS PERIOD   2
    22 TOTAL ITERATIONS
0WARNING: NUMERICAL OSCILLATION ENCOUNTERED
 ONE OR MORE CELL CONCENTRATIONS LESS THAN CRHOREF
 SMALLEST DENSITY =  0.100E+04
 AT CELL (I,J,K) = (   3,  58,  26)
>>>>>>> Stashed changes

 
 SOLVING FOR HEAD 
 FLOW MODEL IS TRANSIENT
 FLOW MODEL CONTAINS CONSTANT-HEAD CELLS


 MAXIMUM STEPSIZE DURING WHICH ANY PARTICLE CANNOT MOVE MORE THAN ONE CELL
<<<<<<< Updated upstream
 = 0.1636    (WHEN MIN. R.F.=1)  AT K=   3, I=   2, J=  29

 MAXIMUM STEPSIZE WHICH MEETS STABILITY CRITERION OF THE ADVECTION TERM
 (FOR PURE FINITE-DIFFERENCE OPTION, MIXELM=0) 
 = 0.1135    (WHEN MIN. R.F.=1)  AT K=   3, I=   2, J=  28
=======
 = 0.1873    (WHEN MIN. R.F.=1)  AT K=   3, I=   2, J=  31

 MAXIMUM STEPSIZE WHICH MEETS STABILITY CRITERION OF THE ADVECTION TERM
 (FOR PURE FINITE-DIFFERENCE OPTION, MIXELM=0) 
 = 0.1250    (WHEN MIN. R.F.=1)  AT K=   3, I=   2, J=  30
>>>>>>> Stashed changes


 TOTAL NUMBER OF POINT SOURCES/SINKS PRESENT IN THE FLOW MODEL =   240

 MAXIMUM STEPSIZE WHICH MEETS STABILITY CRITERION OF THE SINK & SOURCE TERM
 = 0.1000E+31(WHEN MIN. R.F.=1)  AT K=   0, I=   0, J=   0

 MAXIMUM STEPSIZE WHICH MEETS STABILITY CRITERION OF THE DISPERSION TERM
<<<<<<< Updated upstream
 = 0.6211E-02(WHEN MIN. R.F.=1)  AT K=   3, I=   2, J=  31
     1 CALLS TO GCG PACKAGE FOR TRANSPORT TIME STEP   3 IN FLOW TIME STEP  14 STRESS PERIOD   2
    19 TOTAL ITERATIONS
0WARNING: NUMERICAL OSCILLATION ENCOUNTERED
 ONE OR MORE CELL CONCENTRATIONS LESS THAN CRHOREF
 SMALLEST DENSITY =  0.100E+04
 AT CELL (I,J,K) = (   1,  43,  27)
=======
 = 0.6714E-02(WHEN MIN. R.F.=1)  AT K=   3, I=   2, J=  30
     1 CALLS TO GCG PACKAGE FOR TRANSPORT TIME STEP   7 IN FLOW TIME STEP  15 STRESS PERIOD   2
    22 TOTAL ITERATIONS
0WARNING: NUMERICAL OSCILLATION ENCOUNTERED
 ONE OR MORE CELL CONCENTRATIONS LESS THAN CRHOREF
 SMALLEST DENSITY =  0.100E+04
 AT CELL (I,J,K) = (   3,  58,  26)
>>>>>>> Stashed changes

 
 SOLVING FOR HEAD 
 FLOW MODEL IS TRANSIENT
 FLOW MODEL CONTAINS CONSTANT-HEAD CELLS


 MAXIMUM STEPSIZE DURING WHICH ANY PARTICLE CANNOT MOVE MORE THAN ONE CELL
<<<<<<< Updated upstream
 = 0.1636    (WHEN MIN. R.F.=1)  AT K=   3, I=   2, J=  29

 MAXIMUM STEPSIZE WHICH MEETS STABILITY CRITERION OF THE ADVECTION TERM
 (FOR PURE FINITE-DIFFERENCE OPTION, MIXELM=0) 
 = 0.1135    (WHEN MIN. R.F.=1)  AT K=   3, I=   2, J=  28
=======
 = 0.1873    (WHEN MIN. R.F.=1)  AT K=   3, I=   2, J=  31

 MAXIMUM STEPSIZE WHICH MEETS STABILITY CRITERION OF THE ADVECTION TERM
 (FOR PURE FINITE-DIFFERENCE OPTION, MIXELM=0) 
 = 0.1250    (WHEN MIN. R.F.=1)  AT K=   3, I=   2, J=  30
>>>>>>> Stashed changes


 TOTAL NUMBER OF POINT SOURCES/SINKS PRESENT IN THE FLOW MODEL =   240

 MAXIMUM STEPSIZE WHICH MEETS STABILITY CRITERION OF THE SINK & SOURCE TERM
 = 0.1000E+31(WHEN MIN. R.F.=1)  AT K=   0, I=   0, J=   0

 MAXIMUM STEPSIZE WHICH MEETS STABILITY CRITERION OF THE DISPERSION TERM
<<<<<<< Updated upstream
 = 0.6211E-02(WHEN MIN. R.F.=1)  AT K=   3, I=   2, J=  31
     1 CALLS TO GCG PACKAGE FOR TRANSPORT TIME STEP   4 IN FLOW TIME STEP  14 STRESS PERIOD   2
    19 TOTAL ITERATIONS
0WARNING: NUMERICAL OSCILLATION ENCOUNTERED
 ONE OR MORE CELL CONCENTRATIONS LESS THAN CRHOREF
 SMALLEST DENSITY =  0.100E+04
 AT CELL (I,J,K) = (   1,  43,  27)
=======
 = 0.6714E-02(WHEN MIN. R.F.=1)  AT K=   3, I=   2, J=  30
     1 CALLS TO GCG PACKAGE FOR TRANSPORT TIME STEP   8 IN FLOW TIME STEP  15 STRESS PERIOD   2
     8 TOTAL ITERATIONS
  MAXIMUM CONCENTRATION CHANGES FOR EACH ITERATION:
  MAX. CHANGE LAYER,ROW,COL MAX. CHANGE LAYER,ROW,COL MAX. CHANGE LAYER,ROW,COL MAX. CHANGE LAYER,ROW,COL MAX. CHANGE LAYER,ROW,COL
 ------------------------------------------------------------------------------------------------------------------------------------
   0.4686E-03 ( 13,  3, 46)  0.5107E-04 (  6,  1, 52)  0.1432E-04 (  4,  2, 44)  0.5253E-05 (  3,  2, 37)  0.1263E-05 (  4,  2, 37)
   0.4219E-06 (  3,  1, 31)  0.1060E-06 (  4,  3, 27)  0.3865E-07 (  3,  2, 41)
 UBDSV1 SAVING "         STORAGE" ON UNIT  53 AT TIME STEP 15, STRESS PERIOD   2
 UBDSV2 SAVING "   CONSTANT HEAD" ON UNIT  53 AT TIME STEP 15, STRESS PERIOD   2
 UBDSV1 SAVING "FLOW RIGHT FACE " ON UNIT  53 AT TIME STEP 15, STRESS PERIOD   2
 UBDSV1 SAVING "FLOW FRONT FACE " ON UNIT  53 AT TIME STEP 15, STRESS PERIOD   2
 UBDSV1 SAVING "FLOW LOWER FACE " ON UNIT  53 AT TIME STEP 15, STRESS PERIOD   2
 UBDSV1 SAVING "            DCDT" ON UNIT  53 AT TIME STEP 15, STRESS PERIOD   2
0WARNING: NUMERICAL OSCILLATION ENCOUNTERED
 ONE OR MORE CELL CONCENTRATIONS LESS THAN CRHOREF
 SMALLEST DENSITY =  0.100E+04
 AT CELL (I,J,K) = (   3,  58,  26)


 HEAD WILL BE SAVED ON UNIT   51 AT END OF TIME STEP  15, STRESS PERIOD    2


                                          ================================================
                                                         FROM TIME =   16.000     TO    17.000    
>>>>>>> Stashed changes

 
 SOLVING FOR HEAD 
 FLOW MODEL IS TRANSIENT
 FLOW MODEL CONTAINS CONSTANT-HEAD CELLS


 MAXIMUM STEPSIZE DURING WHICH ANY PARTICLE CANNOT MOVE MORE THAN ONE CELL
<<<<<<< Updated upstream
 = 0.1636    (WHEN MIN. R.F.=1)  AT K=   3, I=   2, J=  29

 MAXIMUM STEPSIZE WHICH MEETS STABILITY CRITERION OF THE ADVECTION TERM
 (FOR PURE FINITE-DIFFERENCE OPTION, MIXELM=0) 
 = 0.1135    (WHEN MIN. R.F.=1)  AT K=   3, I=   2, J=  28
=======
 = 0.1873    (WHEN MIN. R.F.=1)  AT K=   3, I=   2, J=  31

 MAXIMUM STEPSIZE WHICH MEETS STABILITY CRITERION OF THE ADVECTION TERM
 (FOR PURE FINITE-DIFFERENCE OPTION, MIXELM=0) 
 = 0.1250    (WHEN MIN. R.F.=1)  AT K=   3, I=   2, J=  30
>>>>>>> Stashed changes


 TOTAL NUMBER OF POINT SOURCES/SINKS PRESENT IN THE FLOW MODEL =   240

 MAXIMUM STEPSIZE WHICH MEETS STABILITY CRITERION OF THE SINK & SOURCE TERM
 = 0.1000E+31(WHEN MIN. R.F.=1)  AT K=   0, I=   0, J=   0

 MAXIMUM STEPSIZE WHICH MEETS STABILITY CRITERION OF THE DISPERSION TERM
<<<<<<< Updated upstream
 = 0.6211E-02(WHEN MIN. R.F.=1)  AT K=   3, I=   2, J=  31
     1 CALLS TO GCG PACKAGE FOR TRANSPORT TIME STEP   5 IN FLOW TIME STEP  14 STRESS PERIOD   2
    19 TOTAL ITERATIONS
0WARNING: NUMERICAL OSCILLATION ENCOUNTERED
 ONE OR MORE CELL CONCENTRATIONS LESS THAN CRHOREF
 SMALLEST DENSITY =  0.100E+04
 AT CELL (I,J,K) = (   1,  43,  27)
=======
 = 0.6714E-02(WHEN MIN. R.F.=1)  AT K=   3, I=   2, J=  30


     1 CALLS TO GCG PACKAGE FOR TRANSPORT TIME STEP   1 IN FLOW TIME STEP  16 STRESS PERIOD   2
    22 TOTAL ITERATIONS

 OUTPUT CONTROL FOR STRESS PERIOD    2   TIME STEP  16
    SAVE HEAD FOR ALL LAYERS
    SAVE BUDGET
0WARNING: NUMERICAL OSCILLATION ENCOUNTERED
 ONE OR MORE CELL CONCENTRATIONS LESS THAN CRHOREF
 SMALLEST DENSITY =  0.100E+04
 AT CELL (I,J,K) = (   3,  58,  26)
>>>>>>> Stashed changes

 
 SOLVING FOR HEAD 
 FLOW MODEL IS TRANSIENT
 FLOW MODEL CONTAINS CONSTANT-HEAD CELLS


 MAXIMUM STEPSIZE DURING WHICH ANY PARTICLE CANNOT MOVE MORE THAN ONE CELL
<<<<<<< Updated upstream
 = 0.1636    (WHEN MIN. R.F.=1)  AT K=   3, I=   2, J=  29

 MAXIMUM STEPSIZE WHICH MEETS STABILITY CRITERION OF THE ADVECTION TERM
 (FOR PURE FINITE-DIFFERENCE OPTION, MIXELM=0) 
 = 0.1135    (WHEN MIN. R.F.=1)  AT K=   3, I=   2, J=  28
=======
 = 0.1873    (WHEN MIN. R.F.=1)  AT K=   3, I=   2, J=  31

 MAXIMUM STEPSIZE WHICH MEETS STABILITY CRITERION OF THE ADVECTION TERM
 (FOR PURE FINITE-DIFFERENCE OPTION, MIXELM=0) 
 = 0.1250    (WHEN MIN. R.F.=1)  AT K=   3, I=   2, J=  30
>>>>>>> Stashed changes


 TOTAL NUMBER OF POINT SOURCES/SINKS PRESENT IN THE FLOW MODEL =   240

 MAXIMUM STEPSIZE WHICH MEETS STABILITY CRITERION OF THE SINK & SOURCE TERM
 = 0.1000E+31(WHEN MIN. R.F.=1)  AT K=   0, I=   0, J=   0

 MAXIMUM STEPSIZE WHICH MEETS STABILITY CRITERION OF THE DISPERSION TERM
<<<<<<< Updated upstream
 = 0.6211E-02(WHEN MIN. R.F.=1)  AT K=   3, I=   2, J=  31
     1 CALLS TO GCG PACKAGE FOR TRANSPORT TIME STEP   6 IN FLOW TIME STEP  14 STRESS PERIOD   2
    19 TOTAL ITERATIONS
0WARNING: NUMERICAL OSCILLATION ENCOUNTERED
 ONE OR MORE CELL CONCENTRATIONS LESS THAN CRHOREF
 SMALLEST DENSITY =  0.100E+04
 AT CELL (I,J,K) = (   1,  43,  27)
=======
 = 0.6714E-02(WHEN MIN. R.F.=1)  AT K=   3, I=   2, J=  30
     1 CALLS TO GCG PACKAGE FOR TRANSPORT TIME STEP   2 IN FLOW TIME STEP  16 STRESS PERIOD   2
    22 TOTAL ITERATIONS
0WARNING: NUMERICAL OSCILLATION ENCOUNTERED
 ONE OR MORE CELL CONCENTRATIONS LESS THAN CRHOREF
 SMALLEST DENSITY =  0.100E+04
 AT CELL (I,J,K) = (   3,  58,  26)
>>>>>>> Stashed changes

 
 SOLVING FOR HEAD 
 FLOW MODEL IS TRANSIENT
 FLOW MODEL CONTAINS CONSTANT-HEAD CELLS


 MAXIMUM STEPSIZE DURING WHICH ANY PARTICLE CANNOT MOVE MORE THAN ONE CELL
<<<<<<< Updated upstream
 = 0.1636    (WHEN MIN. R.F.=1)  AT K=   3, I=   2, J=  29

 MAXIMUM STEPSIZE WHICH MEETS STABILITY CRITERION OF THE ADVECTION TERM
 (FOR PURE FINITE-DIFFERENCE OPTION, MIXELM=0) 
 = 0.1135    (WHEN MIN. R.F.=1)  AT K=   3, I=   2, J=  28
=======
 = 0.1873    (WHEN MIN. R.F.=1)  AT K=   3, I=   2, J=  31

 MAXIMUM STEPSIZE WHICH MEETS STABILITY CRITERION OF THE ADVECTION TERM
 (FOR PURE FINITE-DIFFERENCE OPTION, MIXELM=0) 
 = 0.1250    (WHEN MIN. R.F.=1)  AT K=   3, I=   2, J=  30
>>>>>>> Stashed changes


 TOTAL NUMBER OF POINT SOURCES/SINKS PRESENT IN THE FLOW MODEL =   240

 MAXIMUM STEPSIZE WHICH MEETS STABILITY CRITERION OF THE SINK & SOURCE TERM
 = 0.1000E+31(WHEN MIN. R.F.=1)  AT K=   0, I=   0, J=   0

 MAXIMUM STEPSIZE WHICH MEETS STABILITY CRITERION OF THE DISPERSION TERM
<<<<<<< Updated upstream
 = 0.6211E-02(WHEN MIN. R.F.=1)  AT K=   3, I=   2, J=  31
     1 CALLS TO GCG PACKAGE FOR TRANSPORT TIME STEP   7 IN FLOW TIME STEP  14 STRESS PERIOD   2
    19 TOTAL ITERATIONS
0WARNING: NUMERICAL OSCILLATION ENCOUNTERED
 ONE OR MORE CELL CONCENTRATIONS LESS THAN CRHOREF
 SMALLEST DENSITY =  0.100E+04
 AT CELL (I,J,K) = (   1,  43,  27)
=======
 = 0.6714E-02(WHEN MIN. R.F.=1)  AT K=   3, I=   2, J=  30
     1 CALLS TO GCG PACKAGE FOR TRANSPORT TIME STEP   3 IN FLOW TIME STEP  16 STRESS PERIOD   2
    22 TOTAL ITERATIONS
0WARNING: NUMERICAL OSCILLATION ENCOUNTERED
 ONE OR MORE CELL CONCENTRATIONS LESS THAN CRHOREF
 SMALLEST DENSITY =  0.100E+04
 AT CELL (I,J,K) = (   3,  58,  26)
>>>>>>> Stashed changes

 
 SOLVING FOR HEAD 
 FLOW MODEL IS TRANSIENT
 FLOW MODEL CONTAINS CONSTANT-HEAD CELLS


 MAXIMUM STEPSIZE DURING WHICH ANY PARTICLE CANNOT MOVE MORE THAN ONE CELL
<<<<<<< Updated upstream
 = 0.1636    (WHEN MIN. R.F.=1)  AT K=   3, I=   2, J=  29

 MAXIMUM STEPSIZE WHICH MEETS STABILITY CRITERION OF THE ADVECTION TERM
 (FOR PURE FINITE-DIFFERENCE OPTION, MIXELM=0) 
 = 0.1135    (WHEN MIN. R.F.=1)  AT K=   3, I=   2, J=  28
=======
 = 0.1873    (WHEN MIN. R.F.=1)  AT K=   3, I=   2, J=  31

 MAXIMUM STEPSIZE WHICH MEETS STABILITY CRITERION OF THE ADVECTION TERM
 (FOR PURE FINITE-DIFFERENCE OPTION, MIXELM=0) 
 = 0.1250    (WHEN MIN. R.F.=1)  AT K=   3, I=   2, J=  30
>>>>>>> Stashed changes


 TOTAL NUMBER OF POINT SOURCES/SINKS PRESENT IN THE FLOW MODEL =   240

 MAXIMUM STEPSIZE WHICH MEETS STABILITY CRITERION OF THE SINK & SOURCE TERM
 = 0.1000E+31(WHEN MIN. R.F.=1)  AT K=   0, I=   0, J=   0

 MAXIMUM STEPSIZE WHICH MEETS STABILITY CRITERION OF THE DISPERSION TERM
<<<<<<< Updated upstream
 = 0.6210E-02(WHEN MIN. R.F.=1)  AT K=   3, I=   2, J=  31
     1 CALLS TO GCG PACKAGE FOR TRANSPORT TIME STEP   8 IN FLOW TIME STEP  14 STRESS PERIOD   2
    19 TOTAL ITERATIONS
0WARNING: NUMERICAL OSCILLATION ENCOUNTERED
 ONE OR MORE CELL CONCENTRATIONS LESS THAN CRHOREF
 SMALLEST DENSITY =  0.100E+04
 AT CELL (I,J,K) = (   1,  43,  27)
=======
 = 0.6714E-02(WHEN MIN. R.F.=1)  AT K=   3, I=   2, J=  30
     1 CALLS TO GCG PACKAGE FOR TRANSPORT TIME STEP   4 IN FLOW TIME STEP  16 STRESS PERIOD   2
    22 TOTAL ITERATIONS
0WARNING: NUMERICAL OSCILLATION ENCOUNTERED
 ONE OR MORE CELL CONCENTRATIONS LESS THAN CRHOREF
 SMALLEST DENSITY =  0.100E+04
 AT CELL (I,J,K) = (   3,  58,  26)
>>>>>>> Stashed changes

 
 SOLVING FOR HEAD 
 FLOW MODEL IS TRANSIENT
 FLOW MODEL CONTAINS CONSTANT-HEAD CELLS


 MAXIMUM STEPSIZE DURING WHICH ANY PARTICLE CANNOT MOVE MORE THAN ONE CELL
<<<<<<< Updated upstream
 = 0.1636    (WHEN MIN. R.F.=1)  AT K=   3, I=   2, J=  29

 MAXIMUM STEPSIZE WHICH MEETS STABILITY CRITERION OF THE ADVECTION TERM
 (FOR PURE FINITE-DIFFERENCE OPTION, MIXELM=0) 
 = 0.1135    (WHEN MIN. R.F.=1)  AT K=   3, I=   2, J=  28
=======
 = 0.1873    (WHEN MIN. R.F.=1)  AT K=   3, I=   2, J=  31

 MAXIMUM STEPSIZE WHICH MEETS STABILITY CRITERION OF THE ADVECTION TERM
 (FOR PURE FINITE-DIFFERENCE OPTION, MIXELM=0) 
 = 0.1250    (WHEN MIN. R.F.=1)  AT K=   3, I=   2, J=  30
>>>>>>> Stashed changes


 TOTAL NUMBER OF POINT SOURCES/SINKS PRESENT IN THE FLOW MODEL =   240

 MAXIMUM STEPSIZE WHICH MEETS STABILITY CRITERION OF THE SINK & SOURCE TERM
 = 0.1000E+31(WHEN MIN. R.F.=1)  AT K=   0, I=   0, J=   0

 MAXIMUM STEPSIZE WHICH MEETS STABILITY CRITERION OF THE DISPERSION TERM
<<<<<<< Updated upstream
 = 0.6210E-02(WHEN MIN. R.F.=1)  AT K=   3, I=   2, J=  31
     1 CALLS TO GCG PACKAGE FOR TRANSPORT TIME STEP   9 IN FLOW TIME STEP  14 STRESS PERIOD   2
     8 TOTAL ITERATIONS
  MAXIMUM CONCENTRATION CHANGES FOR EACH ITERATION:
  MAX. CHANGE LAYER,ROW,COL MAX. CHANGE LAYER,ROW,COL MAX. CHANGE LAYER,ROW,COL MAX. CHANGE LAYER,ROW,COL MAX. CHANGE LAYER,ROW,COL
 ------------------------------------------------------------------------------------------------------------------------------------
   0.5579E-03 ( 12,  3, 53)  0.7534E-04 (  6,  1, 56)  0.1569E-04 (  4,  2, 43)  0.6237E-05 (  3,  3, 31)  0.2519E-05 (  3,  3, 30)
   0.1151E-05 (  3,  3, 31)  0.2933E-06 (  3,  3, 30)  0.9212E-07 (  3,  3, 29)
0WARNING: NUMERICAL OSCILLATION ENCOUNTERED
 ONE OR MORE CELL CONCENTRATIONS LESS THAN CRHOREF
 SMALLEST DENSITY =  0.100E+04
 AT CELL (I,J,K) = (   1,  43,  27)



                                          ================================================
                                                         FROM TIME =   15.000     TO    16.000    
=======
 = 0.6714E-02(WHEN MIN. R.F.=1)  AT K=   3, I=   2, J=  30
     1 CALLS TO GCG PACKAGE FOR TRANSPORT TIME STEP   5 IN FLOW TIME STEP  16 STRESS PERIOD   2
    22 TOTAL ITERATIONS
0WARNING: NUMERICAL OSCILLATION ENCOUNTERED
 ONE OR MORE CELL CONCENTRATIONS LESS THAN CRHOREF
 SMALLEST DENSITY =  0.100E+04
 AT CELL (I,J,K) = (   3,  58,  26)
>>>>>>> Stashed changes

 
 SOLVING FOR HEAD 
 FLOW MODEL IS TRANSIENT
 FLOW MODEL CONTAINS CONSTANT-HEAD CELLS


 MAXIMUM STEPSIZE DURING WHICH ANY PARTICLE CANNOT MOVE MORE THAN ONE CELL
<<<<<<< Updated upstream
 = 0.1636    (WHEN MIN. R.F.=1)  AT K=   3, I=   2, J=  29

 MAXIMUM STEPSIZE WHICH MEETS STABILITY CRITERION OF THE ADVECTION TERM
 (FOR PURE FINITE-DIFFERENCE OPTION, MIXELM=0) 
 = 0.1135    (WHEN MIN. R.F.=1)  AT K=   3, I=   2, J=  28
=======
 = 0.1873    (WHEN MIN. R.F.=1)  AT K=   3, I=   2, J=  31

 MAXIMUM STEPSIZE WHICH MEETS STABILITY CRITERION OF THE ADVECTION TERM
 (FOR PURE FINITE-DIFFERENCE OPTION, MIXELM=0) 
 = 0.1250    (WHEN MIN. R.F.=1)  AT K=   3, I=   2, J=  30
>>>>>>> Stashed changes


 TOTAL NUMBER OF POINT SOURCES/SINKS PRESENT IN THE FLOW MODEL =   240

 MAXIMUM STEPSIZE WHICH MEETS STABILITY CRITERION OF THE SINK & SOURCE TERM
 = 0.1000E+31(WHEN MIN. R.F.=1)  AT K=   0, I=   0, J=   0

 MAXIMUM STEPSIZE WHICH MEETS STABILITY CRITERION OF THE DISPERSION TERM
<<<<<<< Updated upstream
 = 0.6210E-02(WHEN MIN. R.F.=1)  AT K=   3, I=   2, J=  31


     1 CALLS TO GCG PACKAGE FOR TRANSPORT TIME STEP   1 IN FLOW TIME STEP  15 STRESS PERIOD   2
    19 TOTAL ITERATIONS

 NO OUTPUT CONTROL FOR STRESS PERIOD    2   TIME STEP  15
0WARNING: NUMERICAL OSCILLATION ENCOUNTERED
 ONE OR MORE CELL CONCENTRATIONS LESS THAN CRHOREF
 SMALLEST DENSITY =  0.100E+04
 AT CELL (I,J,K) = (   1,  43,  27)
=======
 = 0.6714E-02(WHEN MIN. R.F.=1)  AT K=   3, I=   2, J=  30
     1 CALLS TO GCG PACKAGE FOR TRANSPORT TIME STEP   6 IN FLOW TIME STEP  16 STRESS PERIOD   2
    22 TOTAL ITERATIONS
0WARNING: NUMERICAL OSCILLATION ENCOUNTERED
 ONE OR MORE CELL CONCENTRATIONS LESS THAN CRHOREF
 SMALLEST DENSITY =  0.100E+04
 AT CELL (I,J,K) = (   3,  58,  26)
>>>>>>> Stashed changes

 
 SOLVING FOR HEAD 
 FLOW MODEL IS TRANSIENT
 FLOW MODEL CONTAINS CONSTANT-HEAD CELLS


 MAXIMUM STEPSIZE DURING WHICH ANY PARTICLE CANNOT MOVE MORE THAN ONE CELL
<<<<<<< Updated upstream
 = 0.1636    (WHEN MIN. R.F.=1)  AT K=   3, I=   2, J=  29

 MAXIMUM STEPSIZE WHICH MEETS STABILITY CRITERION OF THE ADVECTION TERM
 (FOR PURE FINITE-DIFFERENCE OPTION, MIXELM=0) 
 = 0.1135    (WHEN MIN. R.F.=1)  AT K=   3, I=   2, J=  28
=======
 = 0.1873    (WHEN MIN. R.F.=1)  AT K=   3, I=   2, J=  31

 MAXIMUM STEPSIZE WHICH MEETS STABILITY CRITERION OF THE ADVECTION TERM
 (FOR PURE FINITE-DIFFERENCE OPTION, MIXELM=0) 
 = 0.1250    (WHEN MIN. R.F.=1)  AT K=   3, I=   2, J=  30
>>>>>>> Stashed changes


 TOTAL NUMBER OF POINT SOURCES/SINKS PRESENT IN THE FLOW MODEL =   240

 MAXIMUM STEPSIZE WHICH MEETS STABILITY CRITERION OF THE SINK & SOURCE TERM
 = 0.1000E+31(WHEN MIN. R.F.=1)  AT K=   0, I=   0, J=   0

 MAXIMUM STEPSIZE WHICH MEETS STABILITY CRITERION OF THE DISPERSION TERM
<<<<<<< Updated upstream
 = 0.6210E-02(WHEN MIN. R.F.=1)  AT K=   3, I=   2, J=  31
     1 CALLS TO GCG PACKAGE FOR TRANSPORT TIME STEP   2 IN FLOW TIME STEP  15 STRESS PERIOD   2
    19 TOTAL ITERATIONS
0WARNING: NUMERICAL OSCILLATION ENCOUNTERED
 ONE OR MORE CELL CONCENTRATIONS LESS THAN CRHOREF
 SMALLEST DENSITY =  0.100E+04
 AT CELL (I,J,K) = (   1,  43,  27)
=======
 = 0.6713E-02(WHEN MIN. R.F.=1)  AT K=   3, I=   2, J=  30
     1 CALLS TO GCG PACKAGE FOR TRANSPORT TIME STEP   7 IN FLOW TIME STEP  16 STRESS PERIOD   2
    22 TOTAL ITERATIONS
0WARNING: NUMERICAL OSCILLATION ENCOUNTERED
 ONE OR MORE CELL CONCENTRATIONS LESS THAN CRHOREF
 SMALLEST DENSITY =  0.100E+04
 AT CELL (I,J,K) = (   3,  58,  26)
>>>>>>> Stashed changes

 
 SOLVING FOR HEAD 
 FLOW MODEL IS TRANSIENT
 FLOW MODEL CONTAINS CONSTANT-HEAD CELLS


 MAXIMUM STEPSIZE DURING WHICH ANY PARTICLE CANNOT MOVE MORE THAN ONE CELL
<<<<<<< Updated upstream
 = 0.1636    (WHEN MIN. R.F.=1)  AT K=   3, I=   2, J=  29

 MAXIMUM STEPSIZE WHICH MEETS STABILITY CRITERION OF THE ADVECTION TERM
 (FOR PURE FINITE-DIFFERENCE OPTION, MIXELM=0) 
 = 0.1135    (WHEN MIN. R.F.=1)  AT K=   3, I=   2, J=  28
=======
 = 0.1873    (WHEN MIN. R.F.=1)  AT K=   3, I=   2, J=  31

 MAXIMUM STEPSIZE WHICH MEETS STABILITY CRITERION OF THE ADVECTION TERM
 (FOR PURE FINITE-DIFFERENCE OPTION, MIXELM=0) 
 = 0.1250    (WHEN MIN. R.F.=1)  AT K=   3, I=   2, J=  30
>>>>>>> Stashed changes


 TOTAL NUMBER OF POINT SOURCES/SINKS PRESENT IN THE FLOW MODEL =   240

 MAXIMUM STEPSIZE WHICH MEETS STABILITY CRITERION OF THE SINK & SOURCE TERM
 = 0.1000E+31(WHEN MIN. R.F.=1)  AT K=   0, I=   0, J=   0

 MAXIMUM STEPSIZE WHICH MEETS STABILITY CRITERION OF THE DISPERSION TERM
<<<<<<< Updated upstream
 = 0.6210E-02(WHEN MIN. R.F.=1)  AT K=   3, I=   2, J=  31
     1 CALLS TO GCG PACKAGE FOR TRANSPORT TIME STEP   3 IN FLOW TIME STEP  15 STRESS PERIOD   2
    19 TOTAL ITERATIONS
0WARNING: NUMERICAL OSCILLATION ENCOUNTERED
 ONE OR MORE CELL CONCENTRATIONS LESS THAN CRHOREF
 SMALLEST DENSITY =  0.100E+04
 AT CELL (I,J,K) = (   1,  43,  27)
=======
 = 0.6713E-02(WHEN MIN. R.F.=1)  AT K=   3, I=   2, J=  30
     1 CALLS TO GCG PACKAGE FOR TRANSPORT TIME STEP   8 IN FLOW TIME STEP  16 STRESS PERIOD   2
     7 TOTAL ITERATIONS
  MAXIMUM CONCENTRATION CHANGES FOR EACH ITERATION:
  MAX. CHANGE LAYER,ROW,COL MAX. CHANGE LAYER,ROW,COL MAX. CHANGE LAYER,ROW,COL MAX. CHANGE LAYER,ROW,COL MAX. CHANGE LAYER,ROW,COL
 ------------------------------------------------------------------------------------------------------------------------------------
   0.4375E-03 ( 13,  3, 46)  0.4650E-04 (  6,  1, 52)  0.1285E-04 (  4,  2, 44)  0.4703E-05 (  3,  2, 37)  0.1128E-05 (  4,  2, 37)
   0.3829E-06 (  3,  1, 31)  0.9680E-07 (  4,  3, 27)
 UBDSV1 SAVING "         STORAGE" ON UNIT  53 AT TIME STEP 16, STRESS PERIOD   2
 UBDSV2 SAVING "   CONSTANT HEAD" ON UNIT  53 AT TIME STEP 16, STRESS PERIOD   2
 UBDSV1 SAVING "FLOW RIGHT FACE " ON UNIT  53 AT TIME STEP 16, STRESS PERIOD   2
 UBDSV1 SAVING "FLOW FRONT FACE " ON UNIT  53 AT TIME STEP 16, STRESS PERIOD   2
 UBDSV1 SAVING "FLOW LOWER FACE " ON UNIT  53 AT TIME STEP 16, STRESS PERIOD   2
 UBDSV1 SAVING "            DCDT" ON UNIT  53 AT TIME STEP 16, STRESS PERIOD   2
0WARNING: NUMERICAL OSCILLATION ENCOUNTERED
 ONE OR MORE CELL CONCENTRATIONS LESS THAN CRHOREF
 SMALLEST DENSITY =  0.100E+04
 AT CELL (I,J,K) = (   3,  58,  26)


 HEAD WILL BE SAVED ON UNIT   51 AT END OF TIME STEP  16, STRESS PERIOD    2


                                          ================================================
                                                         FROM TIME =   17.000     TO    18.000    
>>>>>>> Stashed changes

 
 SOLVING FOR HEAD 
 FLOW MODEL IS TRANSIENT
 FLOW MODEL CONTAINS CONSTANT-HEAD CELLS


 MAXIMUM STEPSIZE DURING WHICH ANY PARTICLE CANNOT MOVE MORE THAN ONE CELL
<<<<<<< Updated upstream
 = 0.1636    (WHEN MIN. R.F.=1)  AT K=   3, I=   2, J=  29

 MAXIMUM STEPSIZE WHICH MEETS STABILITY CRITERION OF THE ADVECTION TERM
 (FOR PURE FINITE-DIFFERENCE OPTION, MIXELM=0) 
 = 0.1135    (WHEN MIN. R.F.=1)  AT K=   3, I=   2, J=  28
=======
 = 0.1873    (WHEN MIN. R.F.=1)  AT K=   3, I=   2, J=  31

 MAXIMUM STEPSIZE WHICH MEETS STABILITY CRITERION OF THE ADVECTION TERM
 (FOR PURE FINITE-DIFFERENCE OPTION, MIXELM=0) 
 = 0.1250    (WHEN MIN. R.F.=1)  AT K=   3, I=   2, J=  30
>>>>>>> Stashed changes


 TOTAL NUMBER OF POINT SOURCES/SINKS PRESENT IN THE FLOW MODEL =   240

 MAXIMUM STEPSIZE WHICH MEETS STABILITY CRITERION OF THE SINK & SOURCE TERM
 = 0.1000E+31(WHEN MIN. R.F.=1)  AT K=   0, I=   0, J=   0

 MAXIMUM STEPSIZE WHICH MEETS STABILITY CRITERION OF THE DISPERSION TERM
<<<<<<< Updated upstream
 = 0.6210E-02(WHEN MIN. R.F.=1)  AT K=   3, I=   2, J=  31
     1 CALLS TO GCG PACKAGE FOR TRANSPORT TIME STEP   4 IN FLOW TIME STEP  15 STRESS PERIOD   2
    19 TOTAL ITERATIONS
0WARNING: NUMERICAL OSCILLATION ENCOUNTERED
 ONE OR MORE CELL CONCENTRATIONS LESS THAN CRHOREF
 SMALLEST DENSITY =  0.100E+04
 AT CELL (I,J,K) = (   1,  43,  27)
=======
 = 0.6713E-02(WHEN MIN. R.F.=1)  AT K=   3, I=   2, J=  30


     1 CALLS TO GCG PACKAGE FOR TRANSPORT TIME STEP   1 IN FLOW TIME STEP  17 STRESS PERIOD   2
    21 TOTAL ITERATIONS

 OUTPUT CONTROL FOR STRESS PERIOD    2   TIME STEP  17
    SAVE HEAD FOR ALL LAYERS
    SAVE BUDGET
0WARNING: NUMERICAL OSCILLATION ENCOUNTERED
 ONE OR MORE CELL CONCENTRATIONS LESS THAN CRHOREF
 SMALLEST DENSITY =  0.100E+04
 AT CELL (I,J,K) = (   3,  58,  26)
>>>>>>> Stashed changes

 
 SOLVING FOR HEAD 
 FLOW MODEL IS TRANSIENT
 FLOW MODEL CONTAINS CONSTANT-HEAD CELLS


 MAXIMUM STEPSIZE DURING WHICH ANY PARTICLE CANNOT MOVE MORE THAN ONE CELL
<<<<<<< Updated upstream
 = 0.1636    (WHEN MIN. R.F.=1)  AT K=   3, I=   2, J=  29

 MAXIMUM STEPSIZE WHICH MEETS STABILITY CRITERION OF THE ADVECTION TERM
 (FOR PURE FINITE-DIFFERENCE OPTION, MIXELM=0) 
 = 0.1135    (WHEN MIN. R.F.=1)  AT K=   3, I=   2, J=  28
=======
 = 0.1873    (WHEN MIN. R.F.=1)  AT K=   3, I=   2, J=  31

 MAXIMUM STEPSIZE WHICH MEETS STABILITY CRITERION OF THE ADVECTION TERM
 (FOR PURE FINITE-DIFFERENCE OPTION, MIXELM=0) 
 = 0.1250    (WHEN MIN. R.F.=1)  AT K=   3, I=   2, J=  30
>>>>>>> Stashed changes


 TOTAL NUMBER OF POINT SOURCES/SINKS PRESENT IN THE FLOW MODEL =   240

 MAXIMUM STEPSIZE WHICH MEETS STABILITY CRITERION OF THE SINK & SOURCE TERM
 = 0.1000E+31(WHEN MIN. R.F.=1)  AT K=   0, I=   0, J=   0

 MAXIMUM STEPSIZE WHICH MEETS STABILITY CRITERION OF THE DISPERSION TERM
<<<<<<< Updated upstream
 = 0.6210E-02(WHEN MIN. R.F.=1)  AT K=   3, I=   2, J=  31
     1 CALLS TO GCG PACKAGE FOR TRANSPORT TIME STEP   5 IN FLOW TIME STEP  15 STRESS PERIOD   2
    19 TOTAL ITERATIONS
0WARNING: NUMERICAL OSCILLATION ENCOUNTERED
 ONE OR MORE CELL CONCENTRATIONS LESS THAN CRHOREF
 SMALLEST DENSITY =  0.100E+04
 AT CELL (I,J,K) = (   1,  43,  27)

 
 SOLVING FOR HEAD 
 FLOW MODEL IS TRANSIENT
 FLOW MODEL CONTAINS CONSTANT-HEAD CELLS


 MAXIMUM STEPSIZE DURING WHICH ANY PARTICLE CANNOT MOVE MORE THAN ONE CELL
 = 0.1636    (WHEN MIN. R.F.=1)  AT K=   3, I=   2, J=  29

 MAXIMUM STEPSIZE WHICH MEETS STABILITY CRITERION OF THE ADVECTION TERM
 (FOR PURE FINITE-DIFFERENCE OPTION, MIXELM=0) 
 = 0.1135    (WHEN MIN. R.F.=1)  AT K=   3, I=   2, J=  28


 TOTAL NUMBER OF POINT SOURCES/SINKS PRESENT IN THE FLOW MODEL =   240

 MAXIMUM STEPSIZE WHICH MEETS STABILITY CRITERION OF THE SINK & SOURCE TERM
 = 0.1000E+31(WHEN MIN. R.F.=1)  AT K=   0, I=   0, J=   0

 MAXIMUM STEPSIZE WHICH MEETS STABILITY CRITERION OF THE DISPERSION TERM
 = 0.6210E-02(WHEN MIN. R.F.=1)  AT K=   3, I=   2, J=  31
     1 CALLS TO GCG PACKAGE FOR TRANSPORT TIME STEP   6 IN FLOW TIME STEP  15 STRESS PERIOD   2
    19 TOTAL ITERATIONS
0WARNING: NUMERICAL OSCILLATION ENCOUNTERED
 ONE OR MORE CELL CONCENTRATIONS LESS THAN CRHOREF
 SMALLEST DENSITY =  0.100E+04
 AT CELL (I,J,K) = (   1,  44,  27)
=======
 = 0.6713E-02(WHEN MIN. R.F.=1)  AT K=   3, I=   2, J=  30
     1 CALLS TO GCG PACKAGE FOR TRANSPORT TIME STEP   2 IN FLOW TIME STEP  17 STRESS PERIOD   2
    21 TOTAL ITERATIONS
0WARNING: NUMERICAL OSCILLATION ENCOUNTERED
 ONE OR MORE CELL CONCENTRATIONS LESS THAN CRHOREF
 SMALLEST DENSITY =  0.100E+04
 AT CELL (I,J,K) = (   3,  58,  26)
>>>>>>> Stashed changes

 
 SOLVING FOR HEAD 
 FLOW MODEL IS TRANSIENT
 FLOW MODEL CONTAINS CONSTANT-HEAD CELLS


 MAXIMUM STEPSIZE DURING WHICH ANY PARTICLE CANNOT MOVE MORE THAN ONE CELL
<<<<<<< Updated upstream
 = 0.1636    (WHEN MIN. R.F.=1)  AT K=   3, I=   2, J=  29

 MAXIMUM STEPSIZE WHICH MEETS STABILITY CRITERION OF THE ADVECTION TERM
 (FOR PURE FINITE-DIFFERENCE OPTION, MIXELM=0) 
 = 0.1135    (WHEN MIN. R.F.=1)  AT K=   3, I=   2, J=  28
=======
 = 0.1873    (WHEN MIN. R.F.=1)  AT K=   3, I=   2, J=  31

 MAXIMUM STEPSIZE WHICH MEETS STABILITY CRITERION OF THE ADVECTION TERM
 (FOR PURE FINITE-DIFFERENCE OPTION, MIXELM=0) 
 = 0.1250    (WHEN MIN. R.F.=1)  AT K=   3, I=   2, J=  30
>>>>>>> Stashed changes


 TOTAL NUMBER OF POINT SOURCES/SINKS PRESENT IN THE FLOW MODEL =   240

 MAXIMUM STEPSIZE WHICH MEETS STABILITY CRITERION OF THE SINK & SOURCE TERM
 = 0.1000E+31(WHEN MIN. R.F.=1)  AT K=   0, I=   0, J=   0

 MAXIMUM STEPSIZE WHICH MEETS STABILITY CRITERION OF THE DISPERSION TERM
<<<<<<< Updated upstream
 = 0.6210E-02(WHEN MIN. R.F.=1)  AT K=   3, I=   2, J=  31
     1 CALLS TO GCG PACKAGE FOR TRANSPORT TIME STEP   7 IN FLOW TIME STEP  15 STRESS PERIOD   2
    19 TOTAL ITERATIONS
0WARNING: NUMERICAL OSCILLATION ENCOUNTERED
 ONE OR MORE CELL CONCENTRATIONS LESS THAN CRHOREF
 SMALLEST DENSITY =  0.100E+04
 AT CELL (I,J,K) = (   1,  44,  27)
=======
 = 0.6713E-02(WHEN MIN. R.F.=1)  AT K=   3, I=   2, J=  30
     1 CALLS TO GCG PACKAGE FOR TRANSPORT TIME STEP   3 IN FLOW TIME STEP  17 STRESS PERIOD   2
    21 TOTAL ITERATIONS
0WARNING: NUMERICAL OSCILLATION ENCOUNTERED
 ONE OR MORE CELL CONCENTRATIONS LESS THAN CRHOREF
 SMALLEST DENSITY =  0.100E+04
 AT CELL (I,J,K) = (   3,  58,  26)
>>>>>>> Stashed changes

 
 SOLVING FOR HEAD 
 FLOW MODEL IS TRANSIENT
 FLOW MODEL CONTAINS CONSTANT-HEAD CELLS


 MAXIMUM STEPSIZE DURING WHICH ANY PARTICLE CANNOT MOVE MORE THAN ONE CELL
<<<<<<< Updated upstream
 = 0.1636    (WHEN MIN. R.F.=1)  AT K=   3, I=   2, J=  29

 MAXIMUM STEPSIZE WHICH MEETS STABILITY CRITERION OF THE ADVECTION TERM
 (FOR PURE FINITE-DIFFERENCE OPTION, MIXELM=0) 
 = 0.1135    (WHEN MIN. R.F.=1)  AT K=   3, I=   2, J=  28
=======
 = 0.1873    (WHEN MIN. R.F.=1)  AT K=   3, I=   2, J=  31

 MAXIMUM STEPSIZE WHICH MEETS STABILITY CRITERION OF THE ADVECTION TERM
 (FOR PURE FINITE-DIFFERENCE OPTION, MIXELM=0) 
 = 0.1250    (WHEN MIN. R.F.=1)  AT K=   3, I=   2, J=  30
>>>>>>> Stashed changes


 TOTAL NUMBER OF POINT SOURCES/SINKS PRESENT IN THE FLOW MODEL =   240

 MAXIMUM STEPSIZE WHICH MEETS STABILITY CRITERION OF THE SINK & SOURCE TERM
 = 0.1000E+31(WHEN MIN. R.F.=1)  AT K=   0, I=   0, J=   0

 MAXIMUM STEPSIZE WHICH MEETS STABILITY CRITERION OF THE DISPERSION TERM
<<<<<<< Updated upstream
 = 0.6210E-02(WHEN MIN. R.F.=1)  AT K=   3, I=   2, J=  31
     1 CALLS TO GCG PACKAGE FOR TRANSPORT TIME STEP   8 IN FLOW TIME STEP  15 STRESS PERIOD   2
    19 TOTAL ITERATIONS
0WARNING: NUMERICAL OSCILLATION ENCOUNTERED
 ONE OR MORE CELL CONCENTRATIONS LESS THAN CRHOREF
 SMALLEST DENSITY =  0.100E+04
 AT CELL (I,J,K) = (   1,  44,  27)
=======
 = 0.6713E-02(WHEN MIN. R.F.=1)  AT K=   3, I=   2, J=  30
     1 CALLS TO GCG PACKAGE FOR TRANSPORT TIME STEP   4 IN FLOW TIME STEP  17 STRESS PERIOD   2
    21 TOTAL ITERATIONS
0WARNING: NUMERICAL OSCILLATION ENCOUNTERED
 ONE OR MORE CELL CONCENTRATIONS LESS THAN CRHOREF
 SMALLEST DENSITY =  0.100E+04
 AT CELL (I,J,K) = (   3,  58,  26)
>>>>>>> Stashed changes

 
 SOLVING FOR HEAD 
 FLOW MODEL IS TRANSIENT
 FLOW MODEL CONTAINS CONSTANT-HEAD CELLS


 MAXIMUM STEPSIZE DURING WHICH ANY PARTICLE CANNOT MOVE MORE THAN ONE CELL
<<<<<<< Updated upstream
 = 0.1636    (WHEN MIN. R.F.=1)  AT K=   3, I=   2, J=  29

 MAXIMUM STEPSIZE WHICH MEETS STABILITY CRITERION OF THE ADVECTION TERM
 (FOR PURE FINITE-DIFFERENCE OPTION, MIXELM=0) 
 = 0.1135    (WHEN MIN. R.F.=1)  AT K=   3, I=   2, J=  28
=======
 = 0.1873    (WHEN MIN. R.F.=1)  AT K=   3, I=   2, J=  31

 MAXIMUM STEPSIZE WHICH MEETS STABILITY CRITERION OF THE ADVECTION TERM
 (FOR PURE FINITE-DIFFERENCE OPTION, MIXELM=0) 
 = 0.1250    (WHEN MIN. R.F.=1)  AT K=   3, I=   2, J=  30
>>>>>>> Stashed changes


 TOTAL NUMBER OF POINT SOURCES/SINKS PRESENT IN THE FLOW MODEL =   240

 MAXIMUM STEPSIZE WHICH MEETS STABILITY CRITERION OF THE SINK & SOURCE TERM
 = 0.1000E+31(WHEN MIN. R.F.=1)  AT K=   0, I=   0, J=   0

 MAXIMUM STEPSIZE WHICH MEETS STABILITY CRITERION OF THE DISPERSION TERM
<<<<<<< Updated upstream
 = 0.6210E-02(WHEN MIN. R.F.=1)  AT K=   3, I=   2, J=  31
     1 CALLS TO GCG PACKAGE FOR TRANSPORT TIME STEP   9 IN FLOW TIME STEP  15 STRESS PERIOD   2
     8 TOTAL ITERATIONS
  MAXIMUM CONCENTRATION CHANGES FOR EACH ITERATION:
  MAX. CHANGE LAYER,ROW,COL MAX. CHANGE LAYER,ROW,COL MAX. CHANGE LAYER,ROW,COL MAX. CHANGE LAYER,ROW,COL MAX. CHANGE LAYER,ROW,COL
 ------------------------------------------------------------------------------------------------------------------------------------
   0.5331E-03 ( 12,  3, 53)  0.6889E-04 (  6,  1, 56)  0.1404E-04 (  4,  2, 46)  0.5610E-05 (  3,  3, 31)  0.2270E-05 (  3,  3, 30)
   0.1038E-05 (  3,  3, 31)  0.2678E-06 (  3,  3, 30)  0.8409E-07 (  3,  3, 29)
0WARNING: NUMERICAL OSCILLATION ENCOUNTERED
 ONE OR MORE CELL CONCENTRATIONS LESS THAN CRHOREF
 SMALLEST DENSITY =  0.100E+04
 AT CELL (I,J,K) = (   1,  44,  27)



                                          ================================================
                                                         FROM TIME =   16.000     TO    17.000    

=======
 = 0.6713E-02(WHEN MIN. R.F.=1)  AT K=   3, I=   2, J=  30
     1 CALLS TO GCG PACKAGE FOR TRANSPORT TIME STEP   5 IN FLOW TIME STEP  17 STRESS PERIOD   2
    21 TOTAL ITERATIONS
0WARNING: NUMERICAL OSCILLATION ENCOUNTERED
 ONE OR MORE CELL CONCENTRATIONS LESS THAN CRHOREF
 SMALLEST DENSITY =  0.100E+04
 AT CELL (I,J,K) = (   3,  58,  26)

>>>>>>> Stashed changes
 
 SOLVING FOR HEAD 
 FLOW MODEL IS TRANSIENT
 FLOW MODEL CONTAINS CONSTANT-HEAD CELLS


 MAXIMUM STEPSIZE DURING WHICH ANY PARTICLE CANNOT MOVE MORE THAN ONE CELL
<<<<<<< Updated upstream
 = 0.1636    (WHEN MIN. R.F.=1)  AT K=   3, I=   2, J=  29

 MAXIMUM STEPSIZE WHICH MEETS STABILITY CRITERION OF THE ADVECTION TERM
 (FOR PURE FINITE-DIFFERENCE OPTION, MIXELM=0) 
 = 0.1135    (WHEN MIN. R.F.=1)  AT K=   3, I=   2, J=  28
=======
 = 0.1873    (WHEN MIN. R.F.=1)  AT K=   3, I=   2, J=  31

 MAXIMUM STEPSIZE WHICH MEETS STABILITY CRITERION OF THE ADVECTION TERM
 (FOR PURE FINITE-DIFFERENCE OPTION, MIXELM=0) 
 = 0.1250    (WHEN MIN. R.F.=1)  AT K=   3, I=   2, J=  30
>>>>>>> Stashed changes


 TOTAL NUMBER OF POINT SOURCES/SINKS PRESENT IN THE FLOW MODEL =   240

 MAXIMUM STEPSIZE WHICH MEETS STABILITY CRITERION OF THE SINK & SOURCE TERM
 = 0.1000E+31(WHEN MIN. R.F.=1)  AT K=   0, I=   0, J=   0

 MAXIMUM STEPSIZE WHICH MEETS STABILITY CRITERION OF THE DISPERSION TERM
<<<<<<< Updated upstream
 = 0.6210E-02(WHEN MIN. R.F.=1)  AT K=   3, I=   2, J=  31


     1 CALLS TO GCG PACKAGE FOR TRANSPORT TIME STEP   1 IN FLOW TIME STEP  16 STRESS PERIOD   2
    19 TOTAL ITERATIONS

 NO OUTPUT CONTROL FOR STRESS PERIOD    2   TIME STEP  16
0WARNING: NUMERICAL OSCILLATION ENCOUNTERED
 ONE OR MORE CELL CONCENTRATIONS LESS THAN CRHOREF
 SMALLEST DENSITY =  0.100E+04
 AT CELL (I,J,K) = (   1,  44,  27)
=======
 = 0.6713E-02(WHEN MIN. R.F.=1)  AT K=   3, I=   2, J=  30
     1 CALLS TO GCG PACKAGE FOR TRANSPORT TIME STEP   6 IN FLOW TIME STEP  17 STRESS PERIOD   2
    21 TOTAL ITERATIONS
0WARNING: NUMERICAL OSCILLATION ENCOUNTERED
 ONE OR MORE CELL CONCENTRATIONS LESS THAN CRHOREF
 SMALLEST DENSITY =  0.100E+04
 AT CELL (I,J,K) = (   3,  58,  26)
>>>>>>> Stashed changes

 
 SOLVING FOR HEAD 
 FLOW MODEL IS TRANSIENT
 FLOW MODEL CONTAINS CONSTANT-HEAD CELLS


 MAXIMUM STEPSIZE DURING WHICH ANY PARTICLE CANNOT MOVE MORE THAN ONE CELL
<<<<<<< Updated upstream
 = 0.1636    (WHEN MIN. R.F.=1)  AT K=   3, I=   2, J=  29

 MAXIMUM STEPSIZE WHICH MEETS STABILITY CRITERION OF THE ADVECTION TERM
 (FOR PURE FINITE-DIFFERENCE OPTION, MIXELM=0) 
 = 0.1135    (WHEN MIN. R.F.=1)  AT K=   3, I=   2, J=  28
=======
 = 0.1873    (WHEN MIN. R.F.=1)  AT K=   3, I=   2, J=  31

 MAXIMUM STEPSIZE WHICH MEETS STABILITY CRITERION OF THE ADVECTION TERM
 (FOR PURE FINITE-DIFFERENCE OPTION, MIXELM=0) 
 = 0.1250    (WHEN MIN. R.F.=1)  AT K=   3, I=   2, J=  30
>>>>>>> Stashed changes


 TOTAL NUMBER OF POINT SOURCES/SINKS PRESENT IN THE FLOW MODEL =   240

 MAXIMUM STEPSIZE WHICH MEETS STABILITY CRITERION OF THE SINK & SOURCE TERM
 = 0.1000E+31(WHEN MIN. R.F.=1)  AT K=   0, I=   0, J=   0

 MAXIMUM STEPSIZE WHICH MEETS STABILITY CRITERION OF THE DISPERSION TERM
<<<<<<< Updated upstream
 = 0.6210E-02(WHEN MIN. R.F.=1)  AT K=   3, I=   2, J=  31
     1 CALLS TO GCG PACKAGE FOR TRANSPORT TIME STEP   2 IN FLOW TIME STEP  16 STRESS PERIOD   2
    19 TOTAL ITERATIONS
0WARNING: NUMERICAL OSCILLATION ENCOUNTERED
 ONE OR MORE CELL CONCENTRATIONS LESS THAN CRHOREF
 SMALLEST DENSITY =  0.100E+04
 AT CELL (I,J,K) = (   1,  44,  27)
=======
 = 0.6713E-02(WHEN MIN. R.F.=1)  AT K=   3, I=   2, J=  30
     1 CALLS TO GCG PACKAGE FOR TRANSPORT TIME STEP   7 IN FLOW TIME STEP  17 STRESS PERIOD   2
    21 TOTAL ITERATIONS
0WARNING: NUMERICAL OSCILLATION ENCOUNTERED
 ONE OR MORE CELL CONCENTRATIONS LESS THAN CRHOREF
 SMALLEST DENSITY =  0.100E+04
 AT CELL (I,J,K) = (   3,  58,  26)
>>>>>>> Stashed changes

 
 SOLVING FOR HEAD 
 FLOW MODEL IS TRANSIENT
 FLOW MODEL CONTAINS CONSTANT-HEAD CELLS


 MAXIMUM STEPSIZE DURING WHICH ANY PARTICLE CANNOT MOVE MORE THAN ONE CELL
<<<<<<< Updated upstream
 = 0.1636    (WHEN MIN. R.F.=1)  AT K=   3, I=   2, J=  29

 MAXIMUM STEPSIZE WHICH MEETS STABILITY CRITERION OF THE ADVECTION TERM
 (FOR PURE FINITE-DIFFERENCE OPTION, MIXELM=0) 
 = 0.1135    (WHEN MIN. R.F.=1)  AT K=   3, I=   2, J=  28
=======
 = 0.1872    (WHEN MIN. R.F.=1)  AT K=   3, I=   2, J=  31

 MAXIMUM STEPSIZE WHICH MEETS STABILITY CRITERION OF THE ADVECTION TERM
 (FOR PURE FINITE-DIFFERENCE OPTION, MIXELM=0) 
 = 0.1250    (WHEN MIN. R.F.=1)  AT K=   3, I=   2, J=  30
>>>>>>> Stashed changes


 TOTAL NUMBER OF POINT SOURCES/SINKS PRESENT IN THE FLOW MODEL =   240

 MAXIMUM STEPSIZE WHICH MEETS STABILITY CRITERION OF THE SINK & SOURCE TERM
 = 0.1000E+31(WHEN MIN. R.F.=1)  AT K=   0, I=   0, J=   0

 MAXIMUM STEPSIZE WHICH MEETS STABILITY CRITERION OF THE DISPERSION TERM
<<<<<<< Updated upstream
 = 0.6210E-02(WHEN MIN. R.F.=1)  AT K=   3, I=   2, J=  31
     1 CALLS TO GCG PACKAGE FOR TRANSPORT TIME STEP   3 IN FLOW TIME STEP  16 STRESS PERIOD   2
    19 TOTAL ITERATIONS
0WARNING: NUMERICAL OSCILLATION ENCOUNTERED
 ONE OR MORE CELL CONCENTRATIONS LESS THAN CRHOREF
 SMALLEST DENSITY =  0.100E+04
 AT CELL (I,J,K) = (   1,  44,  27)
=======
 = 0.6713E-02(WHEN MIN. R.F.=1)  AT K=   3, I=   2, J=  30
     1 CALLS TO GCG PACKAGE FOR TRANSPORT TIME STEP   8 IN FLOW TIME STEP  17 STRESS PERIOD   2
     7 TOTAL ITERATIONS
  MAXIMUM CONCENTRATION CHANGES FOR EACH ITERATION:
  MAX. CHANGE LAYER,ROW,COL MAX. CHANGE LAYER,ROW,COL MAX. CHANGE LAYER,ROW,COL MAX. CHANGE LAYER,ROW,COL MAX. CHANGE LAYER,ROW,COL
 ------------------------------------------------------------------------------------------------------------------------------------
   0.4082E-03 ( 13,  3, 46)  0.4250E-04 (  6,  1, 52)  0.1159E-04 (  4,  2, 44)  0.4240E-05 (  3,  2, 37)  0.1018E-05 (  4,  2, 37)
   0.3550E-06 (  3,  1, 31)  0.8640E-07 (  4,  3, 27)
 UBDSV1 SAVING "         STORAGE" ON UNIT  53 AT TIME STEP 17, STRESS PERIOD   2
 UBDSV2 SAVING "   CONSTANT HEAD" ON UNIT  53 AT TIME STEP 17, STRESS PERIOD   2
 UBDSV1 SAVING "FLOW RIGHT FACE " ON UNIT  53 AT TIME STEP 17, STRESS PERIOD   2
 UBDSV1 SAVING "FLOW FRONT FACE " ON UNIT  53 AT TIME STEP 17, STRESS PERIOD   2
 UBDSV1 SAVING "FLOW LOWER FACE " ON UNIT  53 AT TIME STEP 17, STRESS PERIOD   2
 UBDSV1 SAVING "            DCDT" ON UNIT  53 AT TIME STEP 17, STRESS PERIOD   2
0WARNING: NUMERICAL OSCILLATION ENCOUNTERED
 ONE OR MORE CELL CONCENTRATIONS LESS THAN CRHOREF
 SMALLEST DENSITY =  0.100E+04
 AT CELL (I,J,K) = (   3,  58,  26)


 HEAD WILL BE SAVED ON UNIT   51 AT END OF TIME STEP  17, STRESS PERIOD    2


                                          ================================================
                                                         FROM TIME =   18.000     TO    19.000    
>>>>>>> Stashed changes

 
 SOLVING FOR HEAD 
 FLOW MODEL IS TRANSIENT
 FLOW MODEL CONTAINS CONSTANT-HEAD CELLS


 MAXIMUM STEPSIZE DURING WHICH ANY PARTICLE CANNOT MOVE MORE THAN ONE CELL
<<<<<<< Updated upstream
 = 0.1636    (WHEN MIN. R.F.=1)  AT K=   3, I=   2, J=  29

 MAXIMUM STEPSIZE WHICH MEETS STABILITY CRITERION OF THE ADVECTION TERM
 (FOR PURE FINITE-DIFFERENCE OPTION, MIXELM=0) 
 = 0.1135    (WHEN MIN. R.F.=1)  AT K=   3, I=   2, J=  28
=======
 = 0.1872    (WHEN MIN. R.F.=1)  AT K=   3, I=   2, J=  31

 MAXIMUM STEPSIZE WHICH MEETS STABILITY CRITERION OF THE ADVECTION TERM
 (FOR PURE FINITE-DIFFERENCE OPTION, MIXELM=0) 
 = 0.1250    (WHEN MIN. R.F.=1)  AT K=   3, I=   2, J=  30
>>>>>>> Stashed changes


 TOTAL NUMBER OF POINT SOURCES/SINKS PRESENT IN THE FLOW MODEL =   240

 MAXIMUM STEPSIZE WHICH MEETS STABILITY CRITERION OF THE SINK & SOURCE TERM
 = 0.1000E+31(WHEN MIN. R.F.=1)  AT K=   0, I=   0, J=   0

 MAXIMUM STEPSIZE WHICH MEETS STABILITY CRITERION OF THE DISPERSION TERM
<<<<<<< Updated upstream
 = 0.6210E-02(WHEN MIN. R.F.=1)  AT K=   3, I=   2, J=  31
     1 CALLS TO GCG PACKAGE FOR TRANSPORT TIME STEP   4 IN FLOW TIME STEP  16 STRESS PERIOD   2
    19 TOTAL ITERATIONS
0WARNING: NUMERICAL OSCILLATION ENCOUNTERED
 ONE OR MORE CELL CONCENTRATIONS LESS THAN CRHOREF
 SMALLEST DENSITY =  0.100E+04
 AT CELL (I,J,K) = (   1,  44,  27)
=======
 = 0.6713E-02(WHEN MIN. R.F.=1)  AT K=   3, I=   2, J=  30


     1 CALLS TO GCG PACKAGE FOR TRANSPORT TIME STEP   1 IN FLOW TIME STEP  18 STRESS PERIOD   2
    21 TOTAL ITERATIONS

 OUTPUT CONTROL FOR STRESS PERIOD    2   TIME STEP  18
    SAVE HEAD FOR ALL LAYERS
    SAVE BUDGET
0WARNING: NUMERICAL OSCILLATION ENCOUNTERED
 ONE OR MORE CELL CONCENTRATIONS LESS THAN CRHOREF
 SMALLEST DENSITY =  0.100E+04
 AT CELL (I,J,K) = (   3,  58,  26)
>>>>>>> Stashed changes

 
 SOLVING FOR HEAD 
 FLOW MODEL IS TRANSIENT
 FLOW MODEL CONTAINS CONSTANT-HEAD CELLS


 MAXIMUM STEPSIZE DURING WHICH ANY PARTICLE CANNOT MOVE MORE THAN ONE CELL
<<<<<<< Updated upstream
 = 0.1636    (WHEN MIN. R.F.=1)  AT K=   3, I=   2, J=  29

 MAXIMUM STEPSIZE WHICH MEETS STABILITY CRITERION OF THE ADVECTION TERM
 (FOR PURE FINITE-DIFFERENCE OPTION, MIXELM=0) 
 = 0.1135    (WHEN MIN. R.F.=1)  AT K=   3, I=   2, J=  28
=======
 = 0.1872    (WHEN MIN. R.F.=1)  AT K=   3, I=   2, J=  31

 MAXIMUM STEPSIZE WHICH MEETS STABILITY CRITERION OF THE ADVECTION TERM
 (FOR PURE FINITE-DIFFERENCE OPTION, MIXELM=0) 
 = 0.1250    (WHEN MIN. R.F.=1)  AT K=   3, I=   2, J=  30
>>>>>>> Stashed changes


 TOTAL NUMBER OF POINT SOURCES/SINKS PRESENT IN THE FLOW MODEL =   240

 MAXIMUM STEPSIZE WHICH MEETS STABILITY CRITERION OF THE SINK & SOURCE TERM
 = 0.1000E+31(WHEN MIN. R.F.=1)  AT K=   0, I=   0, J=   0

 MAXIMUM STEPSIZE WHICH MEETS STABILITY CRITERION OF THE DISPERSION TERM
<<<<<<< Updated upstream
 = 0.6210E-02(WHEN MIN. R.F.=1)  AT K=   3, I=   2, J=  31
     1 CALLS TO GCG PACKAGE FOR TRANSPORT TIME STEP   5 IN FLOW TIME STEP  16 STRESS PERIOD   2
=======
 = 0.6713E-02(WHEN MIN. R.F.=1)  AT K=   3, I=   2, J=  30
     1 CALLS TO GCG PACKAGE FOR TRANSPORT TIME STEP   2 IN FLOW TIME STEP  18 STRESS PERIOD   2
>>>>>>> Stashed changes
    19 TOTAL ITERATIONS
0WARNING: NUMERICAL OSCILLATION ENCOUNTERED
 ONE OR MORE CELL CONCENTRATIONS LESS THAN CRHOREF
 SMALLEST DENSITY =  0.100E+04
<<<<<<< Updated upstream
 AT CELL (I,J,K) = (   1,  44,  27)
=======
 AT CELL (I,J,K) = (   3,  58,  26)
>>>>>>> Stashed changes

 
 SOLVING FOR HEAD 
 FLOW MODEL IS TRANSIENT
 FLOW MODEL CONTAINS CONSTANT-HEAD CELLS


 MAXIMUM STEPSIZE DURING WHICH ANY PARTICLE CANNOT MOVE MORE THAN ONE CELL
<<<<<<< Updated upstream
 = 0.1636    (WHEN MIN. R.F.=1)  AT K=   3, I=   2, J=  29

 MAXIMUM STEPSIZE WHICH MEETS STABILITY CRITERION OF THE ADVECTION TERM
 (FOR PURE FINITE-DIFFERENCE OPTION, MIXELM=0) 
 = 0.1135    (WHEN MIN. R.F.=1)  AT K=   3, I=   2, J=  28
=======
 = 0.1872    (WHEN MIN. R.F.=1)  AT K=   3, I=   2, J=  31

 MAXIMUM STEPSIZE WHICH MEETS STABILITY CRITERION OF THE ADVECTION TERM
 (FOR PURE FINITE-DIFFERENCE OPTION, MIXELM=0) 
 = 0.1250    (WHEN MIN. R.F.=1)  AT K=   3, I=   2, J=  30
>>>>>>> Stashed changes


 TOTAL NUMBER OF POINT SOURCES/SINKS PRESENT IN THE FLOW MODEL =   240

 MAXIMUM STEPSIZE WHICH MEETS STABILITY CRITERION OF THE SINK & SOURCE TERM
 = 0.1000E+31(WHEN MIN. R.F.=1)  AT K=   0, I=   0, J=   0

 MAXIMUM STEPSIZE WHICH MEETS STABILITY CRITERION OF THE DISPERSION TERM
<<<<<<< Updated upstream
 = 0.6210E-02(WHEN MIN. R.F.=1)  AT K=   3, I=   2, J=  31
     1 CALLS TO GCG PACKAGE FOR TRANSPORT TIME STEP   6 IN FLOW TIME STEP  16 STRESS PERIOD   2
    19 TOTAL ITERATIONS
0WARNING: NUMERICAL OSCILLATION ENCOUNTERED
 ONE OR MORE CELL CONCENTRATIONS LESS THAN CRHOREF
 SMALLEST DENSITY =  0.100E+04
 AT CELL (I,J,K) = (   1,  44,  27)
=======
 = 0.6713E-02(WHEN MIN. R.F.=1)  AT K=   3, I=   2, J=  30
     1 CALLS TO GCG PACKAGE FOR TRANSPORT TIME STEP   3 IN FLOW TIME STEP  18 STRESS PERIOD   2
    22 TOTAL ITERATIONS
0WARNING: NUMERICAL OSCILLATION ENCOUNTERED
 ONE OR MORE CELL CONCENTRATIONS LESS THAN CRHOREF
 SMALLEST DENSITY =  0.100E+04
 AT CELL (I,J,K) = (   3,  58,  26)
>>>>>>> Stashed changes

 
 SOLVING FOR HEAD 
 FLOW MODEL IS TRANSIENT
 FLOW MODEL CONTAINS CONSTANT-HEAD CELLS


 MAXIMUM STEPSIZE DURING WHICH ANY PARTICLE CANNOT MOVE MORE THAN ONE CELL
<<<<<<< Updated upstream
 = 0.1636    (WHEN MIN. R.F.=1)  AT K=   3, I=   2, J=  29

 MAXIMUM STEPSIZE WHICH MEETS STABILITY CRITERION OF THE ADVECTION TERM
 (FOR PURE FINITE-DIFFERENCE OPTION, MIXELM=0) 
 = 0.1134    (WHEN MIN. R.F.=1)  AT K=   3, I=   2, J=  28
=======
 = 0.1872    (WHEN MIN. R.F.=1)  AT K=   3, I=   2, J=  31

 MAXIMUM STEPSIZE WHICH MEETS STABILITY CRITERION OF THE ADVECTION TERM
 (FOR PURE FINITE-DIFFERENCE OPTION, MIXELM=0) 
 = 0.1250    (WHEN MIN. R.F.=1)  AT K=   3, I=   2, J=  30
>>>>>>> Stashed changes


 TOTAL NUMBER OF POINT SOURCES/SINKS PRESENT IN THE FLOW MODEL =   240

 MAXIMUM STEPSIZE WHICH MEETS STABILITY CRITERION OF THE SINK & SOURCE TERM
 = 0.1000E+31(WHEN MIN. R.F.=1)  AT K=   0, I=   0, J=   0

 MAXIMUM STEPSIZE WHICH MEETS STABILITY CRITERION OF THE DISPERSION TERM
<<<<<<< Updated upstream
 = 0.6210E-02(WHEN MIN. R.F.=1)  AT K=   3, I=   2, J=  31
     1 CALLS TO GCG PACKAGE FOR TRANSPORT TIME STEP   7 IN FLOW TIME STEP  16 STRESS PERIOD   2
    19 TOTAL ITERATIONS
0WARNING: NUMERICAL OSCILLATION ENCOUNTERED
 ONE OR MORE CELL CONCENTRATIONS LESS THAN CRHOREF
 SMALLEST DENSITY =  0.100E+04
 AT CELL (I,J,K) = (   1,  44,  27)
=======
 = 0.6713E-02(WHEN MIN. R.F.=1)  AT K=   3, I=   2, J=  30
     1 CALLS TO GCG PACKAGE FOR TRANSPORT TIME STEP   4 IN FLOW TIME STEP  18 STRESS PERIOD   2
    22 TOTAL ITERATIONS
0WARNING: NUMERICAL OSCILLATION ENCOUNTERED
 ONE OR MORE CELL CONCENTRATIONS LESS THAN CRHOREF
 SMALLEST DENSITY =  0.100E+04
 AT CELL (I,J,K) = (   3,  58,  26)
>>>>>>> Stashed changes

 
 SOLVING FOR HEAD 
 FLOW MODEL IS TRANSIENT
 FLOW MODEL CONTAINS CONSTANT-HEAD CELLS


 MAXIMUM STEPSIZE DURING WHICH ANY PARTICLE CANNOT MOVE MORE THAN ONE CELL
<<<<<<< Updated upstream
 = 0.1636    (WHEN MIN. R.F.=1)  AT K=   3, I=   2, J=  29

 MAXIMUM STEPSIZE WHICH MEETS STABILITY CRITERION OF THE ADVECTION TERM
 (FOR PURE FINITE-DIFFERENCE OPTION, MIXELM=0) 
 = 0.1134    (WHEN MIN. R.F.=1)  AT K=   3, I=   2, J=  28
=======
 = 0.1872    (WHEN MIN. R.F.=1)  AT K=   3, I=   2, J=  31

 MAXIMUM STEPSIZE WHICH MEETS STABILITY CRITERION OF THE ADVECTION TERM
 (FOR PURE FINITE-DIFFERENCE OPTION, MIXELM=0) 
 = 0.1250    (WHEN MIN. R.F.=1)  AT K=   3, I=   2, J=  30
>>>>>>> Stashed changes


 TOTAL NUMBER OF POINT SOURCES/SINKS PRESENT IN THE FLOW MODEL =   240

 MAXIMUM STEPSIZE WHICH MEETS STABILITY CRITERION OF THE SINK & SOURCE TERM
 = 0.1000E+31(WHEN MIN. R.F.=1)  AT K=   0, I=   0, J=   0

 MAXIMUM STEPSIZE WHICH MEETS STABILITY CRITERION OF THE DISPERSION TERM
<<<<<<< Updated upstream
 = 0.6210E-02(WHEN MIN. R.F.=1)  AT K=   3, I=   2, J=  31
     1 CALLS TO GCG PACKAGE FOR TRANSPORT TIME STEP   8 IN FLOW TIME STEP  16 STRESS PERIOD   2
=======
 = 0.6713E-02(WHEN MIN. R.F.=1)  AT K=   3, I=   2, J=  30
     1 CALLS TO GCG PACKAGE FOR TRANSPORT TIME STEP   5 IN FLOW TIME STEP  18 STRESS PERIOD   2
>>>>>>> Stashed changes
    19 TOTAL ITERATIONS
0WARNING: NUMERICAL OSCILLATION ENCOUNTERED
 ONE OR MORE CELL CONCENTRATIONS LESS THAN CRHOREF
 SMALLEST DENSITY =  0.100E+04
<<<<<<< Updated upstream
 AT CELL (I,J,K) = (   1,  44,  27)
=======
 AT CELL (I,J,K) = (   3,  58,  26)
>>>>>>> Stashed changes

 
 SOLVING FOR HEAD 
 FLOW MODEL IS TRANSIENT
 FLOW MODEL CONTAINS CONSTANT-HEAD CELLS


 MAXIMUM STEPSIZE DURING WHICH ANY PARTICLE CANNOT MOVE MORE THAN ONE CELL
<<<<<<< Updated upstream
 = 0.1636    (WHEN MIN. R.F.=1)  AT K=   3, I=   2, J=  29

 MAXIMUM STEPSIZE WHICH MEETS STABILITY CRITERION OF THE ADVECTION TERM
 (FOR PURE FINITE-DIFFERENCE OPTION, MIXELM=0) 
 = 0.1134    (WHEN MIN. R.F.=1)  AT K=   3, I=   2, J=  28
=======
 = 0.1872    (WHEN MIN. R.F.=1)  AT K=   3, I=   2, J=  31

 MAXIMUM STEPSIZE WHICH MEETS STABILITY CRITERION OF THE ADVECTION TERM
 (FOR PURE FINITE-DIFFERENCE OPTION, MIXELM=0) 
 = 0.1250    (WHEN MIN. R.F.=1)  AT K=   3, I=   2, J=  30
>>>>>>> Stashed changes


 TOTAL NUMBER OF POINT SOURCES/SINKS PRESENT IN THE FLOW MODEL =   240

 MAXIMUM STEPSIZE WHICH MEETS STABILITY CRITERION OF THE SINK & SOURCE TERM
 = 0.1000E+31(WHEN MIN. R.F.=1)  AT K=   0, I=   0, J=   0

 MAXIMUM STEPSIZE WHICH MEETS STABILITY CRITERION OF THE DISPERSION TERM
<<<<<<< Updated upstream
 = 0.6209E-02(WHEN MIN. R.F.=1)  AT K=   3, I=   2, J=  31
     1 CALLS TO GCG PACKAGE FOR TRANSPORT TIME STEP   9 IN FLOW TIME STEP  16 STRESS PERIOD   2
     8 TOTAL ITERATIONS
  MAXIMUM CONCENTRATION CHANGES FOR EACH ITERATION:
  MAX. CHANGE LAYER,ROW,COL MAX. CHANGE LAYER,ROW,COL MAX. CHANGE LAYER,ROW,COL MAX. CHANGE LAYER,ROW,COL MAX. CHANGE LAYER,ROW,COL
 ------------------------------------------------------------------------------------------------------------------------------------
   0.5085E-03 ( 12,  3, 54)  0.6323E-04 (  6,  1, 56)  0.1269E-04 (  4,  2, 46)  0.5074E-05 (  3,  3, 31)  0.2057E-05 (  3,  3, 30)
   0.9404E-06 (  3,  3, 31)  0.2458E-06 (  3,  3, 30)  0.7717E-07 (  3,  3, 29)
0WARNING: NUMERICAL OSCILLATION ENCOUNTERED
 ONE OR MORE CELL CONCENTRATIONS LESS THAN CRHOREF
 SMALLEST DENSITY =  0.100E+04
 AT CELL (I,J,K) = (   1,  44,  27)



                                          ================================================
                                                         FROM TIME =   17.000     TO    18.000    
=======
 = 0.6713E-02(WHEN MIN. R.F.=1)  AT K=   3, I=   2, J=  30
     1 CALLS TO GCG PACKAGE FOR TRANSPORT TIME STEP   6 IN FLOW TIME STEP  18 STRESS PERIOD   2
    22 TOTAL ITERATIONS
0WARNING: NUMERICAL OSCILLATION ENCOUNTERED
 ONE OR MORE CELL CONCENTRATIONS LESS THAN CRHOREF
 SMALLEST DENSITY =  0.100E+04
 AT CELL (I,J,K) = (   3,  58,  26)
>>>>>>> Stashed changes

 
 SOLVING FOR HEAD 
 FLOW MODEL IS TRANSIENT
 FLOW MODEL CONTAINS CONSTANT-HEAD CELLS


 MAXIMUM STEPSIZE DURING WHICH ANY PARTICLE CANNOT MOVE MORE THAN ONE CELL
<<<<<<< Updated upstream
 = 0.1636    (WHEN MIN. R.F.=1)  AT K=   3, I=   2, J=  29

 MAXIMUM STEPSIZE WHICH MEETS STABILITY CRITERION OF THE ADVECTION TERM
 (FOR PURE FINITE-DIFFERENCE OPTION, MIXELM=0) 
 = 0.1134    (WHEN MIN. R.F.=1)  AT K=   3, I=   2, J=  28
=======
 = 0.1872    (WHEN MIN. R.F.=1)  AT K=   3, I=   2, J=  31

 MAXIMUM STEPSIZE WHICH MEETS STABILITY CRITERION OF THE ADVECTION TERM
 (FOR PURE FINITE-DIFFERENCE OPTION, MIXELM=0) 
 = 0.1250    (WHEN MIN. R.F.=1)  AT K=   3, I=   2, J=  30
>>>>>>> Stashed changes


 TOTAL NUMBER OF POINT SOURCES/SINKS PRESENT IN THE FLOW MODEL =   240

 MAXIMUM STEPSIZE WHICH MEETS STABILITY CRITERION OF THE SINK & SOURCE TERM
 = 0.1000E+31(WHEN MIN. R.F.=1)  AT K=   0, I=   0, J=   0

 MAXIMUM STEPSIZE WHICH MEETS STABILITY CRITERION OF THE DISPERSION TERM
<<<<<<< Updated upstream
 = 0.6209E-02(WHEN MIN. R.F.=1)  AT K=   3, I=   2, J=  31


     1 CALLS TO GCG PACKAGE FOR TRANSPORT TIME STEP   1 IN FLOW TIME STEP  17 STRESS PERIOD   2
    19 TOTAL ITERATIONS

 NO OUTPUT CONTROL FOR STRESS PERIOD    2   TIME STEP  17
0WARNING: NUMERICAL OSCILLATION ENCOUNTERED
 ONE OR MORE CELL CONCENTRATIONS LESS THAN CRHOREF
 SMALLEST DENSITY =  0.100E+04
 AT CELL (I,J,K) = (   1,  44,  27)
=======
 = 0.6712E-02(WHEN MIN. R.F.=1)  AT K=   3, I=   2, J=  30
     1 CALLS TO GCG PACKAGE FOR TRANSPORT TIME STEP   7 IN FLOW TIME STEP  18 STRESS PERIOD   2
    19 TOTAL ITERATIONS
0WARNING: NUMERICAL OSCILLATION ENCOUNTERED
 ONE OR MORE CELL CONCENTRATIONS LESS THAN CRHOREF
 SMALLEST DENSITY =  0.100E+04
 AT CELL (I,J,K) = (   3,  58,  26)
>>>>>>> Stashed changes

 
 SOLVING FOR HEAD 
 FLOW MODEL IS TRANSIENT
 FLOW MODEL CONTAINS CONSTANT-HEAD CELLS


 MAXIMUM STEPSIZE DURING WHICH ANY PARTICLE CANNOT MOVE MORE THAN ONE CELL
<<<<<<< Updated upstream
 = 0.1636    (WHEN MIN. R.F.=1)  AT K=   3, I=   2, J=  29

 MAXIMUM STEPSIZE WHICH MEETS STABILITY CRITERION OF THE ADVECTION TERM
 (FOR PURE FINITE-DIFFERENCE OPTION, MIXELM=0) 
 = 0.1134    (WHEN MIN. R.F.=1)  AT K=   3, I=   2, J=  28
=======
 = 0.1872    (WHEN MIN. R.F.=1)  AT K=   3, I=   2, J=  31

 MAXIMUM STEPSIZE WHICH MEETS STABILITY CRITERION OF THE ADVECTION TERM
 (FOR PURE FINITE-DIFFERENCE OPTION, MIXELM=0) 
 = 0.1250    (WHEN MIN. R.F.=1)  AT K=   3, I=   2, J=  30
>>>>>>> Stashed changes


 TOTAL NUMBER OF POINT SOURCES/SINKS PRESENT IN THE FLOW MODEL =   240

 MAXIMUM STEPSIZE WHICH MEETS STABILITY CRITERION OF THE SINK & SOURCE TERM
 = 0.1000E+31(WHEN MIN. R.F.=1)  AT K=   0, I=   0, J=   0

 MAXIMUM STEPSIZE WHICH MEETS STABILITY CRITERION OF THE DISPERSION TERM
<<<<<<< Updated upstream
 = 0.6209E-02(WHEN MIN. R.F.=1)  AT K=   3, I=   2, J=  31
     1 CALLS TO GCG PACKAGE FOR TRANSPORT TIME STEP   2 IN FLOW TIME STEP  17 STRESS PERIOD   2
    18 TOTAL ITERATIONS
0WARNING: NUMERICAL OSCILLATION ENCOUNTERED
 ONE OR MORE CELL CONCENTRATIONS LESS THAN CRHOREF
 SMALLEST DENSITY =  0.100E+04
 AT CELL (I,J,K) = (   1,  43,  28)
=======
 = 0.6712E-02(WHEN MIN. R.F.=1)  AT K=   3, I=   2, J=  30
     1 CALLS TO GCG PACKAGE FOR TRANSPORT TIME STEP   8 IN FLOW TIME STEP  18 STRESS PERIOD   2
     7 TOTAL ITERATIONS
  MAXIMUM CONCENTRATION CHANGES FOR EACH ITERATION:
  MAX. CHANGE LAYER,ROW,COL MAX. CHANGE LAYER,ROW,COL MAX. CHANGE LAYER,ROW,COL MAX. CHANGE LAYER,ROW,COL MAX. CHANGE LAYER,ROW,COL
 ------------------------------------------------------------------------------------------------------------------------------------
   0.3828E-03 ( 13,  2, 53)  0.3897E-04 (  6,  1, 52)  0.1050E-04 (  4,  2, 44)  0.3829E-05 (  3,  2, 37)  0.9157E-06 (  4,  2, 37)
   0.3128E-06 (  3,  1, 31)  0.8440E-07 (  4,  3, 27)
 UBDSV1 SAVING "         STORAGE" ON UNIT  53 AT TIME STEP 18, STRESS PERIOD   2
 UBDSV2 SAVING "   CONSTANT HEAD" ON UNIT  53 AT TIME STEP 18, STRESS PERIOD   2
 UBDSV1 SAVING "FLOW RIGHT FACE " ON UNIT  53 AT TIME STEP 18, STRESS PERIOD   2
 UBDSV1 SAVING "FLOW FRONT FACE " ON UNIT  53 AT TIME STEP 18, STRESS PERIOD   2
 UBDSV1 SAVING "FLOW LOWER FACE " ON UNIT  53 AT TIME STEP 18, STRESS PERIOD   2
 UBDSV1 SAVING "            DCDT" ON UNIT  53 AT TIME STEP 18, STRESS PERIOD   2
0WARNING: NUMERICAL OSCILLATION ENCOUNTERED
 ONE OR MORE CELL CONCENTRATIONS LESS THAN CRHOREF
 SMALLEST DENSITY =  0.100E+04
 AT CELL (I,J,K) = (   3,  58,  26)


 HEAD WILL BE SAVED ON UNIT   51 AT END OF TIME STEP  18, STRESS PERIOD    2


                                          ================================================
                                                         FROM TIME =   19.000     TO    20.000    
>>>>>>> Stashed changes

 
 SOLVING FOR HEAD 
 FLOW MODEL IS TRANSIENT
 FLOW MODEL CONTAINS CONSTANT-HEAD CELLS


 MAXIMUM STEPSIZE DURING WHICH ANY PARTICLE CANNOT MOVE MORE THAN ONE CELL
<<<<<<< Updated upstream
 = 0.1636    (WHEN MIN. R.F.=1)  AT K=   3, I=   2, J=  29

 MAXIMUM STEPSIZE WHICH MEETS STABILITY CRITERION OF THE ADVECTION TERM
 (FOR PURE FINITE-DIFFERENCE OPTION, MIXELM=0) 
 = 0.1134    (WHEN MIN. R.F.=1)  AT K=   3, I=   2, J=  28
=======
 = 0.1872    (WHEN MIN. R.F.=1)  AT K=   3, I=   2, J=  31

 MAXIMUM STEPSIZE WHICH MEETS STABILITY CRITERION OF THE ADVECTION TERM
 (FOR PURE FINITE-DIFFERENCE OPTION, MIXELM=0) 
 = 0.1250    (WHEN MIN. R.F.=1)  AT K=   3, I=   2, J=  30
>>>>>>> Stashed changes


 TOTAL NUMBER OF POINT SOURCES/SINKS PRESENT IN THE FLOW MODEL =   240

 MAXIMUM STEPSIZE WHICH MEETS STABILITY CRITERION OF THE SINK & SOURCE TERM
 = 0.1000E+31(WHEN MIN. R.F.=1)  AT K=   0, I=   0, J=   0

 MAXIMUM STEPSIZE WHICH MEETS STABILITY CRITERION OF THE DISPERSION TERM
<<<<<<< Updated upstream
 = 0.6209E-02(WHEN MIN. R.F.=1)  AT K=   3, I=   2, J=  31
     1 CALLS TO GCG PACKAGE FOR TRANSPORT TIME STEP   3 IN FLOW TIME STEP  17 STRESS PERIOD   2
    18 TOTAL ITERATIONS
0WARNING: NUMERICAL OSCILLATION ENCOUNTERED
 ONE OR MORE CELL CONCENTRATIONS LESS THAN CRHOREF
 SMALLEST DENSITY =  0.100E+04
 AT CELL (I,J,K) = (   1,  43,  28)
=======
 = 0.6712E-02(WHEN MIN. R.F.=1)  AT K=   3, I=   2, J=  30


     1 CALLS TO GCG PACKAGE FOR TRANSPORT TIME STEP   1 IN FLOW TIME STEP  19 STRESS PERIOD   2
    19 TOTAL ITERATIONS

 OUTPUT CONTROL FOR STRESS PERIOD    2   TIME STEP  19
    SAVE HEAD FOR ALL LAYERS
    SAVE BUDGET
0WARNING: NUMERICAL OSCILLATION ENCOUNTERED
 ONE OR MORE CELL CONCENTRATIONS LESS THAN CRHOREF
 SMALLEST DENSITY =  0.100E+04
 AT CELL (I,J,K) = (   3,  58,  26)
>>>>>>> Stashed changes

 
 SOLVING FOR HEAD 
 FLOW MODEL IS TRANSIENT
 FLOW MODEL CONTAINS CONSTANT-HEAD CELLS


 MAXIMUM STEPSIZE DURING WHICH ANY PARTICLE CANNOT MOVE MORE THAN ONE CELL
<<<<<<< Updated upstream
 = 0.1636    (WHEN MIN. R.F.=1)  AT K=   3, I=   2, J=  29

 MAXIMUM STEPSIZE WHICH MEETS STABILITY CRITERION OF THE ADVECTION TERM
 (FOR PURE FINITE-DIFFERENCE OPTION, MIXELM=0) 
 = 0.1134    (WHEN MIN. R.F.=1)  AT K=   3, I=   2, J=  28
=======
 = 0.1872    (WHEN MIN. R.F.=1)  AT K=   3, I=   2, J=  31

 MAXIMUM STEPSIZE WHICH MEETS STABILITY CRITERION OF THE ADVECTION TERM
 (FOR PURE FINITE-DIFFERENCE OPTION, MIXELM=0) 
 = 0.1250    (WHEN MIN. R.F.=1)  AT K=   3, I=   2, J=  30
>>>>>>> Stashed changes


 TOTAL NUMBER OF POINT SOURCES/SINKS PRESENT IN THE FLOW MODEL =   240

 MAXIMUM STEPSIZE WHICH MEETS STABILITY CRITERION OF THE SINK & SOURCE TERM
 = 0.1000E+31(WHEN MIN. R.F.=1)  AT K=   0, I=   0, J=   0

 MAXIMUM STEPSIZE WHICH MEETS STABILITY CRITERION OF THE DISPERSION TERM
<<<<<<< Updated upstream
 = 0.6209E-02(WHEN MIN. R.F.=1)  AT K=   3, I=   2, J=  31
     1 CALLS TO GCG PACKAGE FOR TRANSPORT TIME STEP   4 IN FLOW TIME STEP  17 STRESS PERIOD   2
    18 TOTAL ITERATIONS
0WARNING: NUMERICAL OSCILLATION ENCOUNTERED
 ONE OR MORE CELL CONCENTRATIONS LESS THAN CRHOREF
 SMALLEST DENSITY =  0.100E+04
 AT CELL (I,J,K) = (   1,  43,  28)
=======
 = 0.6712E-02(WHEN MIN. R.F.=1)  AT K=   3, I=   2, J=  30
     1 CALLS TO GCG PACKAGE FOR TRANSPORT TIME STEP   2 IN FLOW TIME STEP  19 STRESS PERIOD   2
    22 TOTAL ITERATIONS
0WARNING: NUMERICAL OSCILLATION ENCOUNTERED
 ONE OR MORE CELL CONCENTRATIONS LESS THAN CRHOREF
 SMALLEST DENSITY =  0.100E+04
 AT CELL (I,J,K) = (   3,  58,  26)
>>>>>>> Stashed changes

 
 SOLVING FOR HEAD 
 FLOW MODEL IS TRANSIENT
 FLOW MODEL CONTAINS CONSTANT-HEAD CELLS


 MAXIMUM STEPSIZE DURING WHICH ANY PARTICLE CANNOT MOVE MORE THAN ONE CELL
<<<<<<< Updated upstream
 = 0.1636    (WHEN MIN. R.F.=1)  AT K=   3, I=   2, J=  29

 MAXIMUM STEPSIZE WHICH MEETS STABILITY CRITERION OF THE ADVECTION TERM
 (FOR PURE FINITE-DIFFERENCE OPTION, MIXELM=0) 
 = 0.1134    (WHEN MIN. R.F.=1)  AT K=   3, I=   2, J=  28
=======
 = 0.1872    (WHEN MIN. R.F.=1)  AT K=   3, I=   2, J=  31

 MAXIMUM STEPSIZE WHICH MEETS STABILITY CRITERION OF THE ADVECTION TERM
 (FOR PURE FINITE-DIFFERENCE OPTION, MIXELM=0) 
 = 0.1250    (WHEN MIN. R.F.=1)  AT K=   3, I=   2, J=  30
>>>>>>> Stashed changes


 TOTAL NUMBER OF POINT SOURCES/SINKS PRESENT IN THE FLOW MODEL =   240

 MAXIMUM STEPSIZE WHICH MEETS STABILITY CRITERION OF THE SINK & SOURCE TERM
 = 0.1000E+31(WHEN MIN. R.F.=1)  AT K=   0, I=   0, J=   0

 MAXIMUM STEPSIZE WHICH MEETS STABILITY CRITERION OF THE DISPERSION TERM
<<<<<<< Updated upstream
 = 0.6209E-02(WHEN MIN. R.F.=1)  AT K=   3, I=   2, J=  31
     1 CALLS TO GCG PACKAGE FOR TRANSPORT TIME STEP   5 IN FLOW TIME STEP  17 STRESS PERIOD   2
    18 TOTAL ITERATIONS
0WARNING: NUMERICAL OSCILLATION ENCOUNTERED
 ONE OR MORE CELL CONCENTRATIONS LESS THAN CRHOREF
 SMALLEST DENSITY =  0.100E+04
 AT CELL (I,J,K) = (   1,  43,  28)
=======
 = 0.6712E-02(WHEN MIN. R.F.=1)  AT K=   3, I=   2, J=  30
     1 CALLS TO GCG PACKAGE FOR TRANSPORT TIME STEP   3 IN FLOW TIME STEP  19 STRESS PERIOD   2
    19 TOTAL ITERATIONS
0WARNING: NUMERICAL OSCILLATION ENCOUNTERED
 ONE OR MORE CELL CONCENTRATIONS LESS THAN CRHOREF
 SMALLEST DENSITY =  0.100E+04
 AT CELL (I,J,K) = (   3,  59,  26)
>>>>>>> Stashed changes

 
 SOLVING FOR HEAD 
 FLOW MODEL IS TRANSIENT
 FLOW MODEL CONTAINS CONSTANT-HEAD CELLS


 MAXIMUM STEPSIZE DURING WHICH ANY PARTICLE CANNOT MOVE MORE THAN ONE CELL
<<<<<<< Updated upstream
 = 0.1636    (WHEN MIN. R.F.=1)  AT K=   3, I=   2, J=  29

 MAXIMUM STEPSIZE WHICH MEETS STABILITY CRITERION OF THE ADVECTION TERM
 (FOR PURE FINITE-DIFFERENCE OPTION, MIXELM=0) 
 = 0.1134    (WHEN MIN. R.F.=1)  AT K=   3, I=   2, J=  28
=======
 = 0.1872    (WHEN MIN. R.F.=1)  AT K=   3, I=   2, J=  31

 MAXIMUM STEPSIZE WHICH MEETS STABILITY CRITERION OF THE ADVECTION TERM
 (FOR PURE FINITE-DIFFERENCE OPTION, MIXELM=0) 
 = 0.1250    (WHEN MIN. R.F.=1)  AT K=   3, I=   2, J=  30
>>>>>>> Stashed changes


 TOTAL NUMBER OF POINT SOURCES/SINKS PRESENT IN THE FLOW MODEL =   240

 MAXIMUM STEPSIZE WHICH MEETS STABILITY CRITERION OF THE SINK & SOURCE TERM
 = 0.1000E+31(WHEN MIN. R.F.=1)  AT K=   0, I=   0, J=   0

 MAXIMUM STEPSIZE WHICH MEETS STABILITY CRITERION OF THE DISPERSION TERM
<<<<<<< Updated upstream
 = 0.6209E-02(WHEN MIN. R.F.=1)  AT K=   3, I=   2, J=  31
     1 CALLS TO GCG PACKAGE FOR TRANSPORT TIME STEP   6 IN FLOW TIME STEP  17 STRESS PERIOD   2
    18 TOTAL ITERATIONS
0WARNING: NUMERICAL OSCILLATION ENCOUNTERED
 ONE OR MORE CELL CONCENTRATIONS LESS THAN CRHOREF
 SMALLEST DENSITY =  0.100E+04
 AT CELL (I,J,K) = (   1,  43,  28)
=======
 = 0.6712E-02(WHEN MIN. R.F.=1)  AT K=   3, I=   2, J=  30
     1 CALLS TO GCG PACKAGE FOR TRANSPORT TIME STEP   4 IN FLOW TIME STEP  19 STRESS PERIOD   2
    22 TOTAL ITERATIONS
0WARNING: NUMERICAL OSCILLATION ENCOUNTERED
 ONE OR MORE CELL CONCENTRATIONS LESS THAN CRHOREF
 SMALLEST DENSITY =  0.100E+04
 AT CELL (I,J,K) = (   3,  59,  26)
>>>>>>> Stashed changes

 
 SOLVING FOR HEAD 
 FLOW MODEL IS TRANSIENT
 FLOW MODEL CONTAINS CONSTANT-HEAD CELLS


 MAXIMUM STEPSIZE DURING WHICH ANY PARTICLE CANNOT MOVE MORE THAN ONE CELL
<<<<<<< Updated upstream
 = 0.1636    (WHEN MIN. R.F.=1)  AT K=   3, I=   2, J=  29

 MAXIMUM STEPSIZE WHICH MEETS STABILITY CRITERION OF THE ADVECTION TERM
 (FOR PURE FINITE-DIFFERENCE OPTION, MIXELM=0) 
 = 0.1134    (WHEN MIN. R.F.=1)  AT K=   3, I=   2, J=  28
=======
 = 0.1872    (WHEN MIN. R.F.=1)  AT K=   3, I=   2, J=  31

 MAXIMUM STEPSIZE WHICH MEETS STABILITY CRITERION OF THE ADVECTION TERM
 (FOR PURE FINITE-DIFFERENCE OPTION, MIXELM=0) 
 = 0.1250    (WHEN MIN. R.F.=1)  AT K=   3, I=   2, J=  30
>>>>>>> Stashed changes


 TOTAL NUMBER OF POINT SOURCES/SINKS PRESENT IN THE FLOW MODEL =   240

 MAXIMUM STEPSIZE WHICH MEETS STABILITY CRITERION OF THE SINK & SOURCE TERM
 = 0.1000E+31(WHEN MIN. R.F.=1)  AT K=   0, I=   0, J=   0

 MAXIMUM STEPSIZE WHICH MEETS STABILITY CRITERION OF THE DISPERSION TERM
<<<<<<< Updated upstream
 = 0.6209E-02(WHEN MIN. R.F.=1)  AT K=   3, I=   2, J=  31
     1 CALLS TO GCG PACKAGE FOR TRANSPORT TIME STEP   7 IN FLOW TIME STEP  17 STRESS PERIOD   2
    18 TOTAL ITERATIONS
0WARNING: NUMERICAL OSCILLATION ENCOUNTERED
 ONE OR MORE CELL CONCENTRATIONS LESS THAN CRHOREF
 SMALLEST DENSITY =  0.100E+04
 AT CELL (I,J,K) = (   1,  43,  28)
=======
 = 0.6712E-02(WHEN MIN. R.F.=1)  AT K=   3, I=   2, J=  30
     1 CALLS TO GCG PACKAGE FOR TRANSPORT TIME STEP   5 IN FLOW TIME STEP  19 STRESS PERIOD   2
    19 TOTAL ITERATIONS
0WARNING: NUMERICAL OSCILLATION ENCOUNTERED
 ONE OR MORE CELL CONCENTRATIONS LESS THAN CRHOREF
 SMALLEST DENSITY =  0.100E+04
 AT CELL (I,J,K) = (   3,  59,  26)
>>>>>>> Stashed changes

 
 SOLVING FOR HEAD 
 FLOW MODEL IS TRANSIENT
 FLOW MODEL CONTAINS CONSTANT-HEAD CELLS


 MAXIMUM STEPSIZE DURING WHICH ANY PARTICLE CANNOT MOVE MORE THAN ONE CELL
<<<<<<< Updated upstream
 = 0.1636    (WHEN MIN. R.F.=1)  AT K=   3, I=   2, J=  29

 MAXIMUM STEPSIZE WHICH MEETS STABILITY CRITERION OF THE ADVECTION TERM
 (FOR PURE FINITE-DIFFERENCE OPTION, MIXELM=0) 
 = 0.1134    (WHEN MIN. R.F.=1)  AT K=   3, I=   2, J=  28
=======
 = 0.1872    (WHEN MIN. R.F.=1)  AT K=   3, I=   2, J=  31

 MAXIMUM STEPSIZE WHICH MEETS STABILITY CRITERION OF THE ADVECTION TERM
 (FOR PURE FINITE-DIFFERENCE OPTION, MIXELM=0) 
 = 0.1250    (WHEN MIN. R.F.=1)  AT K=   3, I=   2, J=  30
>>>>>>> Stashed changes


 TOTAL NUMBER OF POINT SOURCES/SINKS PRESENT IN THE FLOW MODEL =   240

 MAXIMUM STEPSIZE WHICH MEETS STABILITY CRITERION OF THE SINK & SOURCE TERM
 = 0.1000E+31(WHEN MIN. R.F.=1)  AT K=   0, I=   0, J=   0

 MAXIMUM STEPSIZE WHICH MEETS STABILITY CRITERION OF THE DISPERSION TERM
<<<<<<< Updated upstream
 = 0.6209E-02(WHEN MIN. R.F.=1)  AT K=   3, I=   2, J=  31
     1 CALLS TO GCG PACKAGE FOR TRANSPORT TIME STEP   8 IN FLOW TIME STEP  17 STRESS PERIOD   2
    18 TOTAL ITERATIONS
0WARNING: NUMERICAL OSCILLATION ENCOUNTERED
 ONE OR MORE CELL CONCENTRATIONS LESS THAN CRHOREF
 SMALLEST DENSITY =  0.100E+04
 AT CELL (I,J,K) = (   1,  43,  28)
=======
 = 0.6712E-02(WHEN MIN. R.F.=1)  AT K=   3, I=   2, J=  30
     1 CALLS TO GCG PACKAGE FOR TRANSPORT TIME STEP   6 IN FLOW TIME STEP  19 STRESS PERIOD   2
    22 TOTAL ITERATIONS
0WARNING: NUMERICAL OSCILLATION ENCOUNTERED
 ONE OR MORE CELL CONCENTRATIONS LESS THAN CRHOREF
 SMALLEST DENSITY =  0.100E+04
 AT CELL (I,J,K) = (   3,  59,  26)
>>>>>>> Stashed changes

 
 SOLVING FOR HEAD 
 FLOW MODEL IS TRANSIENT
 FLOW MODEL CONTAINS CONSTANT-HEAD CELLS


 MAXIMUM STEPSIZE DURING WHICH ANY PARTICLE CANNOT MOVE MORE THAN ONE CELL
<<<<<<< Updated upstream
 = 0.1636    (WHEN MIN. R.F.=1)  AT K=   3, I=   2, J=  29

 MAXIMUM STEPSIZE WHICH MEETS STABILITY CRITERION OF THE ADVECTION TERM
 (FOR PURE FINITE-DIFFERENCE OPTION, MIXELM=0) 
 = 0.1134    (WHEN MIN. R.F.=1)  AT K=   3, I=   2, J=  28
=======
 = 0.1872    (WHEN MIN. R.F.=1)  AT K=   3, I=   2, J=  31

 MAXIMUM STEPSIZE WHICH MEETS STABILITY CRITERION OF THE ADVECTION TERM
 (FOR PURE FINITE-DIFFERENCE OPTION, MIXELM=0) 
 = 0.1250    (WHEN MIN. R.F.=1)  AT K=   3, I=   2, J=  30
>>>>>>> Stashed changes


 TOTAL NUMBER OF POINT SOURCES/SINKS PRESENT IN THE FLOW MODEL =   240

 MAXIMUM STEPSIZE WHICH MEETS STABILITY CRITERION OF THE SINK & SOURCE TERM
 = 0.1000E+31(WHEN MIN. R.F.=1)  AT K=   0, I=   0, J=   0

 MAXIMUM STEPSIZE WHICH MEETS STABILITY CRITERION OF THE DISPERSION TERM
<<<<<<< Updated upstream
 = 0.6209E-02(WHEN MIN. R.F.=1)  AT K=   3, I=   2, J=  31
     1 CALLS TO GCG PACKAGE FOR TRANSPORT TIME STEP   9 IN FLOW TIME STEP  17 STRESS PERIOD   2
     8 TOTAL ITERATIONS
  MAXIMUM CONCENTRATION CHANGES FOR EACH ITERATION:
  MAX. CHANGE LAYER,ROW,COL MAX. CHANGE LAYER,ROW,COL MAX. CHANGE LAYER,ROW,COL MAX. CHANGE LAYER,ROW,COL MAX. CHANGE LAYER,ROW,COL
 ------------------------------------------------------------------------------------------------------------------------------------
   0.4871E-03 ( 12,  3, 54)  0.5823E-04 (  6,  1, 56)  0.1152E-04 (  4,  2, 46)  0.4627E-05 (  3,  3, 31)  0.1866E-05 (  3,  3, 30)
   0.8703E-06 (  3,  3, 31)  0.2252E-06 (  3,  3, 30)  0.6861E-07 (  3,  3, 29)
0WARNING: NUMERICAL OSCILLATION ENCOUNTERED
 ONE OR MORE CELL CONCENTRATIONS LESS THAN CRHOREF
 SMALLEST DENSITY =  0.100E+04
 AT CELL (I,J,K) = (   1,  43,  28)



                                          ================================================
                                                         FROM TIME =   18.000     TO    19.000    
=======
 = 0.6712E-02(WHEN MIN. R.F.=1)  AT K=   3, I=   2, J=  30
     1 CALLS TO GCG PACKAGE FOR TRANSPORT TIME STEP   7 IN FLOW TIME STEP  19 STRESS PERIOD   2
    19 TOTAL ITERATIONS
0WARNING: NUMERICAL OSCILLATION ENCOUNTERED
 ONE OR MORE CELL CONCENTRATIONS LESS THAN CRHOREF
 SMALLEST DENSITY =  0.100E+04
 AT CELL (I,J,K) = (   3,  59,  26)
>>>>>>> Stashed changes

 
 SOLVING FOR HEAD 
 FLOW MODEL IS TRANSIENT
 FLOW MODEL CONTAINS CONSTANT-HEAD CELLS


 MAXIMUM STEPSIZE DURING WHICH ANY PARTICLE CANNOT MOVE MORE THAN ONE CELL
<<<<<<< Updated upstream
 = 0.1636    (WHEN MIN. R.F.=1)  AT K=   3, I=   2, J=  29

 MAXIMUM STEPSIZE WHICH MEETS STABILITY CRITERION OF THE ADVECTION TERM
 (FOR PURE FINITE-DIFFERENCE OPTION, MIXELM=0) 
 = 0.1134    (WHEN MIN. R.F.=1)  AT K=   3, I=   2, J=  28
=======
 = 0.1872    (WHEN MIN. R.F.=1)  AT K=   3, I=   2, J=  31

 MAXIMUM STEPSIZE WHICH MEETS STABILITY CRITERION OF THE ADVECTION TERM
 (FOR PURE FINITE-DIFFERENCE OPTION, MIXELM=0) 
 = 0.1250    (WHEN MIN. R.F.=1)  AT K=   3, I=   2, J=  30
>>>>>>> Stashed changes


 TOTAL NUMBER OF POINT SOURCES/SINKS PRESENT IN THE FLOW MODEL =   240

 MAXIMUM STEPSIZE WHICH MEETS STABILITY CRITERION OF THE SINK & SOURCE TERM
 = 0.1000E+31(WHEN MIN. R.F.=1)  AT K=   0, I=   0, J=   0

 MAXIMUM STEPSIZE WHICH MEETS STABILITY CRITERION OF THE DISPERSION TERM
<<<<<<< Updated upstream
 = 0.6209E-02(WHEN MIN. R.F.=1)  AT K=   3, I=   2, J=  31


     1 CALLS TO GCG PACKAGE FOR TRANSPORT TIME STEP   1 IN FLOW TIME STEP  18 STRESS PERIOD   2
    18 TOTAL ITERATIONS

 NO OUTPUT CONTROL FOR STRESS PERIOD    2   TIME STEP  18
0WARNING: NUMERICAL OSCILLATION ENCOUNTERED
 ONE OR MORE CELL CONCENTRATIONS LESS THAN CRHOREF
 SMALLEST DENSITY =  0.100E+04
 AT CELL (I,J,K) = (   1,  43,  28)
=======
 = 0.6712E-02(WHEN MIN. R.F.=1)  AT K=   3, I=   2, J=  30
     1 CALLS TO GCG PACKAGE FOR TRANSPORT TIME STEP   8 IN FLOW TIME STEP  19 STRESS PERIOD   2
     7 TOTAL ITERATIONS
  MAXIMUM CONCENTRATION CHANGES FOR EACH ITERATION:
  MAX. CHANGE LAYER,ROW,COL MAX. CHANGE LAYER,ROW,COL MAX. CHANGE LAYER,ROW,COL MAX. CHANGE LAYER,ROW,COL MAX. CHANGE LAYER,ROW,COL
 ------------------------------------------------------------------------------------------------------------------------------------
   0.3698E-03 ( 13,  2, 53)  0.3586E-04 (  6,  1, 52)  0.9554E-05 (  4,  2, 44)  0.3481E-05 (  3,  2, 37)  0.8329E-06 (  4,  2, 37)
   0.2877E-06 (  3,  1, 31)  0.7795E-07 (  4,  3, 27)
 UBDSV1 SAVING "         STORAGE" ON UNIT  53 AT TIME STEP 19, STRESS PERIOD   2
 UBDSV2 SAVING "   CONSTANT HEAD" ON UNIT  53 AT TIME STEP 19, STRESS PERIOD   2
 UBDSV1 SAVING "FLOW RIGHT FACE " ON UNIT  53 AT TIME STEP 19, STRESS PERIOD   2
 UBDSV1 SAVING "FLOW FRONT FACE " ON UNIT  53 AT TIME STEP 19, STRESS PERIOD   2
 UBDSV1 SAVING "FLOW LOWER FACE " ON UNIT  53 AT TIME STEP 19, STRESS PERIOD   2
 UBDSV1 SAVING "            DCDT" ON UNIT  53 AT TIME STEP 19, STRESS PERIOD   2
0WARNING: NUMERICAL OSCILLATION ENCOUNTERED
 ONE OR MORE CELL CONCENTRATIONS LESS THAN CRHOREF
 SMALLEST DENSITY =  0.100E+04
 AT CELL (I,J,K) = (   3,  59,  26)


 HEAD WILL BE SAVED ON UNIT   51 AT END OF TIME STEP  19, STRESS PERIOD    2


                                          ================================================
                                                         FROM TIME =   20.000     TO    21.000    
>>>>>>> Stashed changes

 
 SOLVING FOR HEAD 
 FLOW MODEL IS TRANSIENT
 FLOW MODEL CONTAINS CONSTANT-HEAD CELLS


 MAXIMUM STEPSIZE DURING WHICH ANY PARTICLE CANNOT MOVE MORE THAN ONE CELL
<<<<<<< Updated upstream
 = 0.1636    (WHEN MIN. R.F.=1)  AT K=   3, I=   2, J=  29

 MAXIMUM STEPSIZE WHICH MEETS STABILITY CRITERION OF THE ADVECTION TERM
 (FOR PURE FINITE-DIFFERENCE OPTION, MIXELM=0) 
 = 0.1134    (WHEN MIN. R.F.=1)  AT K=   3, I=   2, J=  28
=======
 = 0.1872    (WHEN MIN. R.F.=1)  AT K=   3, I=   2, J=  31

 MAXIMUM STEPSIZE WHICH MEETS STABILITY CRITERION OF THE ADVECTION TERM
 (FOR PURE FINITE-DIFFERENCE OPTION, MIXELM=0) 
 = 0.1250    (WHEN MIN. R.F.=1)  AT K=   3, I=   2, J=  30
>>>>>>> Stashed changes


 TOTAL NUMBER OF POINT SOURCES/SINKS PRESENT IN THE FLOW MODEL =   240

 MAXIMUM STEPSIZE WHICH MEETS STABILITY CRITERION OF THE SINK & SOURCE TERM
 = 0.1000E+31(WHEN MIN. R.F.=1)  AT K=   0, I=   0, J=   0

 MAXIMUM STEPSIZE WHICH MEETS STABILITY CRITERION OF THE DISPERSION TERM
<<<<<<< Updated upstream
 = 0.6209E-02(WHEN MIN. R.F.=1)  AT K=   3, I=   2, J=  31
     1 CALLS TO GCG PACKAGE FOR TRANSPORT TIME STEP   2 IN FLOW TIME STEP  18 STRESS PERIOD   2
    18 TOTAL ITERATIONS
0WARNING: NUMERICAL OSCILLATION ENCOUNTERED
 ONE OR MORE CELL CONCENTRATIONS LESS THAN CRHOREF
 SMALLEST DENSITY =  0.100E+04
 AT CELL (I,J,K) = (   1,  43,  28)
=======
 = 0.6712E-02(WHEN MIN. R.F.=1)  AT K=   3, I=   2, J=  30


     1 CALLS TO GCG PACKAGE FOR TRANSPORT TIME STEP   1 IN FLOW TIME STEP  20 STRESS PERIOD   2
    19 TOTAL ITERATIONS

 OUTPUT CONTROL FOR STRESS PERIOD    2   TIME STEP  20
    SAVE HEAD FOR ALL LAYERS
    SAVE BUDGET
0WARNING: NUMERICAL OSCILLATION ENCOUNTERED
 ONE OR MORE CELL CONCENTRATIONS LESS THAN CRHOREF
 SMALLEST DENSITY =  0.100E+04
 AT CELL (I,J,K) = (   3,  59,  26)
>>>>>>> Stashed changes

 
 SOLVING FOR HEAD 
 FLOW MODEL IS TRANSIENT
 FLOW MODEL CONTAINS CONSTANT-HEAD CELLS


 MAXIMUM STEPSIZE DURING WHICH ANY PARTICLE CANNOT MOVE MORE THAN ONE CELL
<<<<<<< Updated upstream
 = 0.1636    (WHEN MIN. R.F.=1)  AT K=   3, I=   2, J=  29

 MAXIMUM STEPSIZE WHICH MEETS STABILITY CRITERION OF THE ADVECTION TERM
 (FOR PURE FINITE-DIFFERENCE OPTION, MIXELM=0) 
 = 0.1134    (WHEN MIN. R.F.=1)  AT K=   3, I=   2, J=  28
=======
 = 0.1872    (WHEN MIN. R.F.=1)  AT K=   3, I=   2, J=  31

 MAXIMUM STEPSIZE WHICH MEETS STABILITY CRITERION OF THE ADVECTION TERM
 (FOR PURE FINITE-DIFFERENCE OPTION, MIXELM=0) 
 = 0.1250    (WHEN MIN. R.F.=1)  AT K=   3, I=   2, J=  30
>>>>>>> Stashed changes


 TOTAL NUMBER OF POINT SOURCES/SINKS PRESENT IN THE FLOW MODEL =   240

 MAXIMUM STEPSIZE WHICH MEETS STABILITY CRITERION OF THE SINK & SOURCE TERM
 = 0.1000E+31(WHEN MIN. R.F.=1)  AT K=   0, I=   0, J=   0

 MAXIMUM STEPSIZE WHICH MEETS STABILITY CRITERION OF THE DISPERSION TERM
<<<<<<< Updated upstream
 = 0.6209E-02(WHEN MIN. R.F.=1)  AT K=   3, I=   2, J=  31
     1 CALLS TO GCG PACKAGE FOR TRANSPORT TIME STEP   3 IN FLOW TIME STEP  18 STRESS PERIOD   2
    18 TOTAL ITERATIONS
0WARNING: NUMERICAL OSCILLATION ENCOUNTERED
 ONE OR MORE CELL CONCENTRATIONS LESS THAN CRHOREF
 SMALLEST DENSITY =  0.100E+04
 AT CELL (I,J,K) = (   1,  43,  28)

 
 SOLVING FOR HEAD 
 FLOW MODEL IS TRANSIENT
 FLOW MODEL CONTAINS CONSTANT-HEAD CELLS


 MAXIMUM STEPSIZE DURING WHICH ANY PARTICLE CANNOT MOVE MORE THAN ONE CELL
 = 0.1636    (WHEN MIN. R.F.=1)  AT K=   3, I=   2, J=  29

 MAXIMUM STEPSIZE WHICH MEETS STABILITY CRITERION OF THE ADVECTION TERM
 (FOR PURE FINITE-DIFFERENCE OPTION, MIXELM=0) 
 = 0.1134    (WHEN MIN. R.F.=1)  AT K=   3, I=   2, J=  28


 TOTAL NUMBER OF POINT SOURCES/SINKS PRESENT IN THE FLOW MODEL =   240

 MAXIMUM STEPSIZE WHICH MEETS STABILITY CRITERION OF THE SINK & SOURCE TERM
 = 0.1000E+31(WHEN MIN. R.F.=1)  AT K=   0, I=   0, J=   0

 MAXIMUM STEPSIZE WHICH MEETS STABILITY CRITERION OF THE DISPERSION TERM
 = 0.6209E-02(WHEN MIN. R.F.=1)  AT K=   3, I=   2, J=  31
     1 CALLS TO GCG PACKAGE FOR TRANSPORT TIME STEP   4 IN FLOW TIME STEP  18 STRESS PERIOD   2
    18 TOTAL ITERATIONS
0WARNING: NUMERICAL OSCILLATION ENCOUNTERED
 ONE OR MORE CELL CONCENTRATIONS LESS THAN CRHOREF
 SMALLEST DENSITY =  0.100E+04
 AT CELL (I,J,K) = (   1,  44,  28)
=======
 = 0.6712E-02(WHEN MIN. R.F.=1)  AT K=   3, I=   2, J=  30
     1 CALLS TO GCG PACKAGE FOR TRANSPORT TIME STEP   2 IN FLOW TIME STEP  20 STRESS PERIOD   2
    19 TOTAL ITERATIONS
0WARNING: NUMERICAL OSCILLATION ENCOUNTERED
 ONE OR MORE CELL CONCENTRATIONS LESS THAN CRHOREF
 SMALLEST DENSITY =  0.100E+04
 AT CELL (I,J,K) = (   3,  59,  26)
>>>>>>> Stashed changes

 
 SOLVING FOR HEAD 
 FLOW MODEL IS TRANSIENT
 FLOW MODEL CONTAINS CONSTANT-HEAD CELLS


 MAXIMUM STEPSIZE DURING WHICH ANY PARTICLE CANNOT MOVE MORE THAN ONE CELL
<<<<<<< Updated upstream
 = 0.1636    (WHEN MIN. R.F.=1)  AT K=   3, I=   2, J=  29

 MAXIMUM STEPSIZE WHICH MEETS STABILITY CRITERION OF THE ADVECTION TERM
 (FOR PURE FINITE-DIFFERENCE OPTION, MIXELM=0) 
 = 0.1134    (WHEN MIN. R.F.=1)  AT K=   3, I=   2, J=  28
=======
 = 0.1872    (WHEN MIN. R.F.=1)  AT K=   3, I=   2, J=  31

 MAXIMUM STEPSIZE WHICH MEETS STABILITY CRITERION OF THE ADVECTION TERM
 (FOR PURE FINITE-DIFFERENCE OPTION, MIXELM=0) 
 = 0.1250    (WHEN MIN. R.F.=1)  AT K=   3, I=   2, J=  30
>>>>>>> Stashed changes


 TOTAL NUMBER OF POINT SOURCES/SINKS PRESENT IN THE FLOW MODEL =   240

 MAXIMUM STEPSIZE WHICH MEETS STABILITY CRITERION OF THE SINK & SOURCE TERM
 = 0.1000E+31(WHEN MIN. R.F.=1)  AT K=   0, I=   0, J=   0

 MAXIMUM STEPSIZE WHICH MEETS STABILITY CRITERION OF THE DISPERSION TERM
<<<<<<< Updated upstream
 = 0.6209E-02(WHEN MIN. R.F.=1)  AT K=   3, I=   2, J=  31
     1 CALLS TO GCG PACKAGE FOR TRANSPORT TIME STEP   5 IN FLOW TIME STEP  18 STRESS PERIOD   2
    18 TOTAL ITERATIONS
0WARNING: NUMERICAL OSCILLATION ENCOUNTERED
 ONE OR MORE CELL CONCENTRATIONS LESS THAN CRHOREF
 SMALLEST DENSITY =  0.100E+04
 AT CELL (I,J,K) = (   1,  44,  28)
=======
 = 0.6712E-02(WHEN MIN. R.F.=1)  AT K=   3, I=   2, J=  30
     1 CALLS TO GCG PACKAGE FOR TRANSPORT TIME STEP   3 IN FLOW TIME STEP  20 STRESS PERIOD   2
    19 TOTAL ITERATIONS
0WARNING: NUMERICAL OSCILLATION ENCOUNTERED
 ONE OR MORE CELL CONCENTRATIONS LESS THAN CRHOREF
 SMALLEST DENSITY =  0.100E+04
 AT CELL (I,J,K) = (   3,  59,  26)
>>>>>>> Stashed changes

 
 SOLVING FOR HEAD 
 FLOW MODEL IS TRANSIENT
 FLOW MODEL CONTAINS CONSTANT-HEAD CELLS


 MAXIMUM STEPSIZE DURING WHICH ANY PARTICLE CANNOT MOVE MORE THAN ONE CELL
<<<<<<< Updated upstream
 = 0.1636    (WHEN MIN. R.F.=1)  AT K=   3, I=   2, J=  29

 MAXIMUM STEPSIZE WHICH MEETS STABILITY CRITERION OF THE ADVECTION TERM
 (FOR PURE FINITE-DIFFERENCE OPTION, MIXELM=0) 
 = 0.1134    (WHEN MIN. R.F.=1)  AT K=   3, I=   2, J=  28
=======
 = 0.1872    (WHEN MIN. R.F.=1)  AT K=   3, I=   2, J=  31

 MAXIMUM STEPSIZE WHICH MEETS STABILITY CRITERION OF THE ADVECTION TERM
 (FOR PURE FINITE-DIFFERENCE OPTION, MIXELM=0) 
 = 0.1250    (WHEN MIN. R.F.=1)  AT K=   3, I=   2, J=  30
>>>>>>> Stashed changes


 TOTAL NUMBER OF POINT SOURCES/SINKS PRESENT IN THE FLOW MODEL =   240

 MAXIMUM STEPSIZE WHICH MEETS STABILITY CRITERION OF THE SINK & SOURCE TERM
 = 0.1000E+31(WHEN MIN. R.F.=1)  AT K=   0, I=   0, J=   0

 MAXIMUM STEPSIZE WHICH MEETS STABILITY CRITERION OF THE DISPERSION TERM
<<<<<<< Updated upstream
 = 0.6209E-02(WHEN MIN. R.F.=1)  AT K=   3, I=   2, J=  31
     1 CALLS TO GCG PACKAGE FOR TRANSPORT TIME STEP   6 IN FLOW TIME STEP  18 STRESS PERIOD   2
    18 TOTAL ITERATIONS
0WARNING: NUMERICAL OSCILLATION ENCOUNTERED
 ONE OR MORE CELL CONCENTRATIONS LESS THAN CRHOREF
 SMALLEST DENSITY =  0.100E+04
 AT CELL (I,J,K) = (   1,  44,  28)
=======
 = 0.6712E-02(WHEN MIN. R.F.=1)  AT K=   3, I=   2, J=  30
     1 CALLS TO GCG PACKAGE FOR TRANSPORT TIME STEP   4 IN FLOW TIME STEP  20 STRESS PERIOD   2
    22 TOTAL ITERATIONS
0WARNING: NUMERICAL OSCILLATION ENCOUNTERED
 ONE OR MORE CELL CONCENTRATIONS LESS THAN CRHOREF
 SMALLEST DENSITY =  0.100E+04
 AT CELL (I,J,K) = (   3,  59,  26)
>>>>>>> Stashed changes

 
 SOLVING FOR HEAD 
 FLOW MODEL IS TRANSIENT
 FLOW MODEL CONTAINS CONSTANT-HEAD CELLS


 MAXIMUM STEPSIZE DURING WHICH ANY PARTICLE CANNOT MOVE MORE THAN ONE CELL
<<<<<<< Updated upstream
 = 0.1636    (WHEN MIN. R.F.=1)  AT K=   3, I=   2, J=  29

 MAXIMUM STEPSIZE WHICH MEETS STABILITY CRITERION OF THE ADVECTION TERM
 (FOR PURE FINITE-DIFFERENCE OPTION, MIXELM=0) 
 = 0.1134    (WHEN MIN. R.F.=1)  AT K=   3, I=   2, J=  28
=======
 = 0.1872    (WHEN MIN. R.F.=1)  AT K=   3, I=   2, J=  31

 MAXIMUM STEPSIZE WHICH MEETS STABILITY CRITERION OF THE ADVECTION TERM
 (FOR PURE FINITE-DIFFERENCE OPTION, MIXELM=0) 
 = 0.1250    (WHEN MIN. R.F.=1)  AT K=   3, I=   2, J=  30
>>>>>>> Stashed changes


 TOTAL NUMBER OF POINT SOURCES/SINKS PRESENT IN THE FLOW MODEL =   240

 MAXIMUM STEPSIZE WHICH MEETS STABILITY CRITERION OF THE SINK & SOURCE TERM
 = 0.1000E+31(WHEN MIN. R.F.=1)  AT K=   0, I=   0, J=   0

 MAXIMUM STEPSIZE WHICH MEETS STABILITY CRITERION OF THE DISPERSION TERM
<<<<<<< Updated upstream
 = 0.6209E-02(WHEN MIN. R.F.=1)  AT K=   3, I=   2, J=  31
     1 CALLS TO GCG PACKAGE FOR TRANSPORT TIME STEP   7 IN FLOW TIME STEP  18 STRESS PERIOD   2
    18 TOTAL ITERATIONS
0WARNING: NUMERICAL OSCILLATION ENCOUNTERED
 ONE OR MORE CELL CONCENTRATIONS LESS THAN CRHOREF
 SMALLEST DENSITY =  0.100E+04
 AT CELL (I,J,K) = (   1,  44,  28)
=======
 = 0.6712E-02(WHEN MIN. R.F.=1)  AT K=   3, I=   2, J=  30
     1 CALLS TO GCG PACKAGE FOR TRANSPORT TIME STEP   5 IN FLOW TIME STEP  20 STRESS PERIOD   2
    19 TOTAL ITERATIONS
0WARNING: NUMERICAL OSCILLATION ENCOUNTERED
 ONE OR MORE CELL CONCENTRATIONS LESS THAN CRHOREF
 SMALLEST DENSITY =  0.100E+04
 AT CELL (I,J,K) = (   3,  59,  26)
>>>>>>> Stashed changes

 
 SOLVING FOR HEAD 
 FLOW MODEL IS TRANSIENT
 FLOW MODEL CONTAINS CONSTANT-HEAD CELLS


 MAXIMUM STEPSIZE DURING WHICH ANY PARTICLE CANNOT MOVE MORE THAN ONE CELL
<<<<<<< Updated upstream
 = 0.1636    (WHEN MIN. R.F.=1)  AT K=   3, I=   2, J=  29

 MAXIMUM STEPSIZE WHICH MEETS STABILITY CRITERION OF THE ADVECTION TERM
 (FOR PURE FINITE-DIFFERENCE OPTION, MIXELM=0) 
 = 0.1134    (WHEN MIN. R.F.=1)  AT K=   3, I=   2, J=  28
=======
 = 0.1872    (WHEN MIN. R.F.=1)  AT K=   3, I=   2, J=  31

 MAXIMUM STEPSIZE WHICH MEETS STABILITY CRITERION OF THE ADVECTION TERM
 (FOR PURE FINITE-DIFFERENCE OPTION, MIXELM=0) 
 = 0.1250    (WHEN MIN. R.F.=1)  AT K=   3, I=   2, J=  30
>>>>>>> Stashed changes


 TOTAL NUMBER OF POINT SOURCES/SINKS PRESENT IN THE FLOW MODEL =   240

 MAXIMUM STEPSIZE WHICH MEETS STABILITY CRITERION OF THE SINK & SOURCE TERM
 = 0.1000E+31(WHEN MIN. R.F.=1)  AT K=   0, I=   0, J=   0

 MAXIMUM STEPSIZE WHICH MEETS STABILITY CRITERION OF THE DISPERSION TERM
<<<<<<< Updated upstream
 = 0.6209E-02(WHEN MIN. R.F.=1)  AT K=   3, I=   2, J=  31
     1 CALLS TO GCG PACKAGE FOR TRANSPORT TIME STEP   8 IN FLOW TIME STEP  18 STRESS PERIOD   2
    18 TOTAL ITERATIONS
0WARNING: NUMERICAL OSCILLATION ENCOUNTERED
 ONE OR MORE CELL CONCENTRATIONS LESS THAN CRHOREF
 SMALLEST DENSITY =  0.100E+04
 AT CELL (I,J,K) = (   1,  44,  28)
=======
 = 0.6712E-02(WHEN MIN. R.F.=1)  AT K=   3, I=   2, J=  30
     1 CALLS TO GCG PACKAGE FOR TRANSPORT TIME STEP   6 IN FLOW TIME STEP  20 STRESS PERIOD   2
    19 TOTAL ITERATIONS
0WARNING: NUMERICAL OSCILLATION ENCOUNTERED
 ONE OR MORE CELL CONCENTRATIONS LESS THAN CRHOREF
 SMALLEST DENSITY =  0.100E+04
 AT CELL (I,J,K) = (   3,  59,  26)
>>>>>>> Stashed changes

 
 SOLVING FOR HEAD 
 FLOW MODEL IS TRANSIENT
 FLOW MODEL CONTAINS CONSTANT-HEAD CELLS


 MAXIMUM STEPSIZE DURING WHICH ANY PARTICLE CANNOT MOVE MORE THAN ONE CELL
<<<<<<< Updated upstream
 = 0.1636    (WHEN MIN. R.F.=1)  AT K=   3, I=   2, J=  29

 MAXIMUM STEPSIZE WHICH MEETS STABILITY CRITERION OF THE ADVECTION TERM
 (FOR PURE FINITE-DIFFERENCE OPTION, MIXELM=0) 
 = 0.1134    (WHEN MIN. R.F.=1)  AT K=   3, I=   2, J=  28
=======
 = 0.1872    (WHEN MIN. R.F.=1)  AT K=   3, I=   2, J=  31

 MAXIMUM STEPSIZE WHICH MEETS STABILITY CRITERION OF THE ADVECTION TERM
 (FOR PURE FINITE-DIFFERENCE OPTION, MIXELM=0) 
 = 0.1250    (WHEN MIN. R.F.=1)  AT K=   3, I=   2, J=  30
>>>>>>> Stashed changes


 TOTAL NUMBER OF POINT SOURCES/SINKS PRESENT IN THE FLOW MODEL =   240

 MAXIMUM STEPSIZE WHICH MEETS STABILITY CRITERION OF THE SINK & SOURCE TERM
 = 0.1000E+31(WHEN MIN. R.F.=1)  AT K=   0, I=   0, J=   0

 MAXIMUM STEPSIZE WHICH MEETS STABILITY CRITERION OF THE DISPERSION TERM
<<<<<<< Updated upstream
 = 0.6208E-02(WHEN MIN. R.F.=1)  AT K=   3, I=   2, J=  31
     1 CALLS TO GCG PACKAGE FOR TRANSPORT TIME STEP   9 IN FLOW TIME STEP  18 STRESS PERIOD   2
     8 TOTAL ITERATIONS
  MAXIMUM CONCENTRATION CHANGES FOR EACH ITERATION:
  MAX. CHANGE LAYER,ROW,COL MAX. CHANGE LAYER,ROW,COL MAX. CHANGE LAYER,ROW,COL MAX. CHANGE LAYER,ROW,COL MAX. CHANGE LAYER,ROW,COL
 ------------------------------------------------------------------------------------------------------------------------------------
   0.4659E-03 ( 12,  3, 54)  0.5379E-04 (  6,  1, 56)  0.1049E-04 (  4,  2, 46)  0.4224E-05 (  3,  3, 31)  0.1708E-05 (  3,  3, 30)
   0.7961E-06 (  3,  3, 31)  0.2085E-06 (  3,  3, 30)  0.6348E-07 (  3,  3, 29)
0WARNING: NUMERICAL OSCILLATION ENCOUNTERED
 ONE OR MORE CELL CONCENTRATIONS LESS THAN CRHOREF
 SMALLEST DENSITY =  0.100E+04
 AT CELL (I,J,K) = (   1,  44,  28)



                                          ================================================
                                                         FROM TIME =   19.000     TO    20.000    
=======
 = 0.6711E-02(WHEN MIN. R.F.=1)  AT K=   3, I=   2, J=  30
     1 CALLS TO GCG PACKAGE FOR TRANSPORT TIME STEP   7 IN FLOW TIME STEP  20 STRESS PERIOD   2
    19 TOTAL ITERATIONS
0WARNING: NUMERICAL OSCILLATION ENCOUNTERED
 ONE OR MORE CELL CONCENTRATIONS LESS THAN CRHOREF
 SMALLEST DENSITY =  0.100E+04
 AT CELL (I,J,K) = (   3,  59,  26)
>>>>>>> Stashed changes

 
 SOLVING FOR HEAD 
 FLOW MODEL IS TRANSIENT
 FLOW MODEL CONTAINS CONSTANT-HEAD CELLS


 MAXIMUM STEPSIZE DURING WHICH ANY PARTICLE CANNOT MOVE MORE THAN ONE CELL
<<<<<<< Updated upstream
 = 0.1636    (WHEN MIN. R.F.=1)  AT K=   3, I=   2, J=  29

 MAXIMUM STEPSIZE WHICH MEETS STABILITY CRITERION OF THE ADVECTION TERM
 (FOR PURE FINITE-DIFFERENCE OPTION, MIXELM=0) 
 = 0.1134    (WHEN MIN. R.F.=1)  AT K=   3, I=   2, J=  28
=======
 = 0.1872    (WHEN MIN. R.F.=1)  AT K=   3, I=   2, J=  31

 MAXIMUM STEPSIZE WHICH MEETS STABILITY CRITERION OF THE ADVECTION TERM
 (FOR PURE FINITE-DIFFERENCE OPTION, MIXELM=0) 
 = 0.1250    (WHEN MIN. R.F.=1)  AT K=   3, I=   2, J=  30
>>>>>>> Stashed changes


 TOTAL NUMBER OF POINT SOURCES/SINKS PRESENT IN THE FLOW MODEL =   240

 MAXIMUM STEPSIZE WHICH MEETS STABILITY CRITERION OF THE SINK & SOURCE TERM
 = 0.1000E+31(WHEN MIN. R.F.=1)  AT K=   0, I=   0, J=   0

 MAXIMUM STEPSIZE WHICH MEETS STABILITY CRITERION OF THE DISPERSION TERM
<<<<<<< Updated upstream
 = 0.6208E-02(WHEN MIN. R.F.=1)  AT K=   3, I=   2, J=  31


     1 CALLS TO GCG PACKAGE FOR TRANSPORT TIME STEP   1 IN FLOW TIME STEP  19 STRESS PERIOD   2
    18 TOTAL ITERATIONS

 NO OUTPUT CONTROL FOR STRESS PERIOD    2   TIME STEP  19
0WARNING: NUMERICAL OSCILLATION ENCOUNTERED
 ONE OR MORE CELL CONCENTRATIONS LESS THAN CRHOREF
 SMALLEST DENSITY =  0.100E+04
 AT CELL (I,J,K) = (   1,  44,  28)
=======
 = 0.6711E-02(WHEN MIN. R.F.=1)  AT K=   3, I=   2, J=  30
     1 CALLS TO GCG PACKAGE FOR TRANSPORT TIME STEP   8 IN FLOW TIME STEP  20 STRESS PERIOD   2
     7 TOTAL ITERATIONS
  MAXIMUM CONCENTRATION CHANGES FOR EACH ITERATION:
  MAX. CHANGE LAYER,ROW,COL MAX. CHANGE LAYER,ROW,COL MAX. CHANGE LAYER,ROW,COL MAX. CHANGE LAYER,ROW,COL MAX. CHANGE LAYER,ROW,COL
 ------------------------------------------------------------------------------------------------------------------------------------
   0.3570E-03 ( 13,  2, 53)  0.3309E-04 (  6,  1, 52)  0.8727E-05 (  4,  2, 44)  0.3180E-05 (  3,  2, 37)  0.7629E-06 (  4,  2, 37)
   0.2632E-06 (  3,  1, 31)  0.7304E-07 (  4,  3, 27)
 UBDSV1 SAVING "         STORAGE" ON UNIT  53 AT TIME STEP 20, STRESS PERIOD   2
 UBDSV2 SAVING "   CONSTANT HEAD" ON UNIT  53 AT TIME STEP 20, STRESS PERIOD   2
 UBDSV1 SAVING "FLOW RIGHT FACE " ON UNIT  53 AT TIME STEP 20, STRESS PERIOD   2
 UBDSV1 SAVING "FLOW FRONT FACE " ON UNIT  53 AT TIME STEP 20, STRESS PERIOD   2
 UBDSV1 SAVING "FLOW LOWER FACE " ON UNIT  53 AT TIME STEP 20, STRESS PERIOD   2
 UBDSV1 SAVING "            DCDT" ON UNIT  53 AT TIME STEP 20, STRESS PERIOD   2
0WARNING: NUMERICAL OSCILLATION ENCOUNTERED
 ONE OR MORE CELL CONCENTRATIONS LESS THAN CRHOREF
 SMALLEST DENSITY =  0.100E+04
 AT CELL (I,J,K) = (   3,  59,  26)


 HEAD WILL BE SAVED ON UNIT   51 AT END OF TIME STEP  20, STRESS PERIOD    2


                                          ================================================
                                                         FROM TIME =   21.000     TO    22.000    
>>>>>>> Stashed changes

 
 SOLVING FOR HEAD 
 FLOW MODEL IS TRANSIENT
 FLOW MODEL CONTAINS CONSTANT-HEAD CELLS


 MAXIMUM STEPSIZE DURING WHICH ANY PARTICLE CANNOT MOVE MORE THAN ONE CELL
<<<<<<< Updated upstream
 = 0.1636    (WHEN MIN. R.F.=1)  AT K=   3, I=   2, J=  29

 MAXIMUM STEPSIZE WHICH MEETS STABILITY CRITERION OF THE ADVECTION TERM
 (FOR PURE FINITE-DIFFERENCE OPTION, MIXELM=0) 
 = 0.1134    (WHEN MIN. R.F.=1)  AT K=   3, I=   2, J=  28
=======
 = 0.1872    (WHEN MIN. R.F.=1)  AT K=   3, I=   2, J=  31

 MAXIMUM STEPSIZE WHICH MEETS STABILITY CRITERION OF THE ADVECTION TERM
 (FOR PURE FINITE-DIFFERENCE OPTION, MIXELM=0) 
 = 0.1250    (WHEN MIN. R.F.=1)  AT K=   3, I=   2, J=  30
>>>>>>> Stashed changes


 TOTAL NUMBER OF POINT SOURCES/SINKS PRESENT IN THE FLOW MODEL =   240

 MAXIMUM STEPSIZE WHICH MEETS STABILITY CRITERION OF THE SINK & SOURCE TERM
 = 0.1000E+31(WHEN MIN. R.F.=1)  AT K=   0, I=   0, J=   0

 MAXIMUM STEPSIZE WHICH MEETS STABILITY CRITERION OF THE DISPERSION TERM
<<<<<<< Updated upstream
 = 0.6208E-02(WHEN MIN. R.F.=1)  AT K=   3, I=   2, J=  31
     1 CALLS TO GCG PACKAGE FOR TRANSPORT TIME STEP   2 IN FLOW TIME STEP  19 STRESS PERIOD   2
    18 TOTAL ITERATIONS
0WARNING: NUMERICAL OSCILLATION ENCOUNTERED
 ONE OR MORE CELL CONCENTRATIONS LESS THAN CRHOREF
 SMALLEST DENSITY =  0.100E+04
 AT CELL (I,J,K) = (   1,  44,  28)
=======
 = 0.6711E-02(WHEN MIN. R.F.=1)  AT K=   3, I=   2, J=  30


     1 CALLS TO GCG PACKAGE FOR TRANSPORT TIME STEP   1 IN FLOW TIME STEP  21 STRESS PERIOD   2
    19 TOTAL ITERATIONS

 OUTPUT CONTROL FOR STRESS PERIOD    2   TIME STEP  21
    SAVE HEAD FOR ALL LAYERS
    SAVE BUDGET
0WARNING: NUMERICAL OSCILLATION ENCOUNTERED
 ONE OR MORE CELL CONCENTRATIONS LESS THAN CRHOREF
 SMALLEST DENSITY =  0.100E+04
 AT CELL (I,J,K) = (   3,  59,  26)
>>>>>>> Stashed changes

 
 SOLVING FOR HEAD 
 FLOW MODEL IS TRANSIENT
 FLOW MODEL CONTAINS CONSTANT-HEAD CELLS


 MAXIMUM STEPSIZE DURING WHICH ANY PARTICLE CANNOT MOVE MORE THAN ONE CELL
<<<<<<< Updated upstream
 = 0.1636    (WHEN MIN. R.F.=1)  AT K=   3, I=   2, J=  29

 MAXIMUM STEPSIZE WHICH MEETS STABILITY CRITERION OF THE ADVECTION TERM
 (FOR PURE FINITE-DIFFERENCE OPTION, MIXELM=0) 
 = 0.1134    (WHEN MIN. R.F.=1)  AT K=   3, I=   2, J=  28
=======
 = 0.1872    (WHEN MIN. R.F.=1)  AT K=   3, I=   2, J=  31

 MAXIMUM STEPSIZE WHICH MEETS STABILITY CRITERION OF THE ADVECTION TERM
 (FOR PURE FINITE-DIFFERENCE OPTION, MIXELM=0) 
 = 0.1250    (WHEN MIN. R.F.=1)  AT K=   3, I=   2, J=  30
>>>>>>> Stashed changes


 TOTAL NUMBER OF POINT SOURCES/SINKS PRESENT IN THE FLOW MODEL =   240

 MAXIMUM STEPSIZE WHICH MEETS STABILITY CRITERION OF THE SINK & SOURCE TERM
 = 0.1000E+31(WHEN MIN. R.F.=1)  AT K=   0, I=   0, J=   0

 MAXIMUM STEPSIZE WHICH MEETS STABILITY CRITERION OF THE DISPERSION TERM
<<<<<<< Updated upstream
 = 0.6208E-02(WHEN MIN. R.F.=1)  AT K=   3, I=   2, J=  31
     1 CALLS TO GCG PACKAGE FOR TRANSPORT TIME STEP   3 IN FLOW TIME STEP  19 STRESS PERIOD   2
    18 TOTAL ITERATIONS
0WARNING: NUMERICAL OSCILLATION ENCOUNTERED
 ONE OR MORE CELL CONCENTRATIONS LESS THAN CRHOREF
 SMALLEST DENSITY =  0.100E+04
 AT CELL (I,J,K) = (   1,  44,  28)
=======
 = 0.6711E-02(WHEN MIN. R.F.=1)  AT K=   3, I=   2, J=  30
     1 CALLS TO GCG PACKAGE FOR TRANSPORT TIME STEP   2 IN FLOW TIME STEP  21 STRESS PERIOD   2
    19 TOTAL ITERATIONS
0WARNING: NUMERICAL OSCILLATION ENCOUNTERED
 ONE OR MORE CELL CONCENTRATIONS LESS THAN CRHOREF
 SMALLEST DENSITY =  0.100E+04
 AT CELL (I,J,K) = (   3,  59,  26)
>>>>>>> Stashed changes

 
 SOLVING FOR HEAD 
 FLOW MODEL IS TRANSIENT
 FLOW MODEL CONTAINS CONSTANT-HEAD CELLS


 MAXIMUM STEPSIZE DURING WHICH ANY PARTICLE CANNOT MOVE MORE THAN ONE CELL
<<<<<<< Updated upstream
 = 0.1636    (WHEN MIN. R.F.=1)  AT K=   3, I=   2, J=  29

 MAXIMUM STEPSIZE WHICH MEETS STABILITY CRITERION OF THE ADVECTION TERM
 (FOR PURE FINITE-DIFFERENCE OPTION, MIXELM=0) 
 = 0.1134    (WHEN MIN. R.F.=1)  AT K=   3, I=   2, J=  28
=======
 = 0.1872    (WHEN MIN. R.F.=1)  AT K=   3, I=   2, J=  31

 MAXIMUM STEPSIZE WHICH MEETS STABILITY CRITERION OF THE ADVECTION TERM
 (FOR PURE FINITE-DIFFERENCE OPTION, MIXELM=0) 
 = 0.1250    (WHEN MIN. R.F.=1)  AT K=   3, I=   2, J=  30
>>>>>>> Stashed changes


 TOTAL NUMBER OF POINT SOURCES/SINKS PRESENT IN THE FLOW MODEL =   240

 MAXIMUM STEPSIZE WHICH MEETS STABILITY CRITERION OF THE SINK & SOURCE TERM
 = 0.1000E+31(WHEN MIN. R.F.=1)  AT K=   0, I=   0, J=   0

 MAXIMUM STEPSIZE WHICH MEETS STABILITY CRITERION OF THE DISPERSION TERM
<<<<<<< Updated upstream
 = 0.6208E-02(WHEN MIN. R.F.=1)  AT K=   3, I=   2, J=  31
     1 CALLS TO GCG PACKAGE FOR TRANSPORT TIME STEP   4 IN FLOW TIME STEP  19 STRESS PERIOD   2
    18 TOTAL ITERATIONS
0WARNING: NUMERICAL OSCILLATION ENCOUNTERED
 ONE OR MORE CELL CONCENTRATIONS LESS THAN CRHOREF
 SMALLEST DENSITY =  0.100E+04
 AT CELL (I,J,K) = (   1,  44,  28)
=======
 = 0.6711E-02(WHEN MIN. R.F.=1)  AT K=   3, I=   2, J=  30
     1 CALLS TO GCG PACKAGE FOR TRANSPORT TIME STEP   3 IN FLOW TIME STEP  21 STRESS PERIOD   2
    19 TOTAL ITERATIONS
0WARNING: NUMERICAL OSCILLATION ENCOUNTERED
 ONE OR MORE CELL CONCENTRATIONS LESS THAN CRHOREF
 SMALLEST DENSITY =  0.100E+04
 AT CELL (I,J,K) = (   3,  59,  26)
>>>>>>> Stashed changes

 
 SOLVING FOR HEAD 
 FLOW MODEL IS TRANSIENT
 FLOW MODEL CONTAINS CONSTANT-HEAD CELLS


 MAXIMUM STEPSIZE DURING WHICH ANY PARTICLE CANNOT MOVE MORE THAN ONE CELL
<<<<<<< Updated upstream
 = 0.1636    (WHEN MIN. R.F.=1)  AT K=   3, I=   2, J=  29

 MAXIMUM STEPSIZE WHICH MEETS STABILITY CRITERION OF THE ADVECTION TERM
 (FOR PURE FINITE-DIFFERENCE OPTION, MIXELM=0) 
 = 0.1134    (WHEN MIN. R.F.=1)  AT K=   3, I=   2, J=  28
=======
 = 0.1872    (WHEN MIN. R.F.=1)  AT K=   3, I=   2, J=  31

 MAXIMUM STEPSIZE WHICH MEETS STABILITY CRITERION OF THE ADVECTION TERM
 (FOR PURE FINITE-DIFFERENCE OPTION, MIXELM=0) 
 = 0.1250    (WHEN MIN. R.F.=1)  AT K=   3, I=   2, J=  30
>>>>>>> Stashed changes


 TOTAL NUMBER OF POINT SOURCES/SINKS PRESENT IN THE FLOW MODEL =   240

 MAXIMUM STEPSIZE WHICH MEETS STABILITY CRITERION OF THE SINK & SOURCE TERM
 = 0.1000E+31(WHEN MIN. R.F.=1)  AT K=   0, I=   0, J=   0

 MAXIMUM STEPSIZE WHICH MEETS STABILITY CRITERION OF THE DISPERSION TERM
<<<<<<< Updated upstream
 = 0.6208E-02(WHEN MIN. R.F.=1)  AT K=   3, I=   2, J=  31
     1 CALLS TO GCG PACKAGE FOR TRANSPORT TIME STEP   5 IN FLOW TIME STEP  19 STRESS PERIOD   2
    18 TOTAL ITERATIONS
0WARNING: NUMERICAL OSCILLATION ENCOUNTERED
 ONE OR MORE CELL CONCENTRATIONS LESS THAN CRHOREF
 SMALLEST DENSITY =  0.100E+04
 AT CELL (I,J,K) = (   1,  44,  28)
=======
 = 0.6711E-02(WHEN MIN. R.F.=1)  AT K=   3, I=   2, J=  30
     1 CALLS TO GCG PACKAGE FOR TRANSPORT TIME STEP   4 IN FLOW TIME STEP  21 STRESS PERIOD   2
    19 TOTAL ITERATIONS
0WARNING: NUMERICAL OSCILLATION ENCOUNTERED
 ONE OR MORE CELL CONCENTRATIONS LESS THAN CRHOREF
 SMALLEST DENSITY =  0.100E+04
 AT CELL (I,J,K) = (   3,  59,  26)
>>>>>>> Stashed changes

 
 SOLVING FOR HEAD 
 FLOW MODEL IS TRANSIENT
 FLOW MODEL CONTAINS CONSTANT-HEAD CELLS


 MAXIMUM STEPSIZE DURING WHICH ANY PARTICLE CANNOT MOVE MORE THAN ONE CELL
<<<<<<< Updated upstream
 = 0.1636    (WHEN MIN. R.F.=1)  AT K=   3, I=   2, J=  29

 MAXIMUM STEPSIZE WHICH MEETS STABILITY CRITERION OF THE ADVECTION TERM
 (FOR PURE FINITE-DIFFERENCE OPTION, MIXELM=0) 
 = 0.1134    (WHEN MIN. R.F.=1)  AT K=   3, I=   2, J=  28
=======
 = 0.1872    (WHEN MIN. R.F.=1)  AT K=   3, I=   2, J=  31

 MAXIMUM STEPSIZE WHICH MEETS STABILITY CRITERION OF THE ADVECTION TERM
 (FOR PURE FINITE-DIFFERENCE OPTION, MIXELM=0) 
 = 0.1250    (WHEN MIN. R.F.=1)  AT K=   3, I=   2, J=  30
>>>>>>> Stashed changes


 TOTAL NUMBER OF POINT SOURCES/SINKS PRESENT IN THE FLOW MODEL =   240

 MAXIMUM STEPSIZE WHICH MEETS STABILITY CRITERION OF THE SINK & SOURCE TERM
 = 0.1000E+31(WHEN MIN. R.F.=1)  AT K=   0, I=   0, J=   0

 MAXIMUM STEPSIZE WHICH MEETS STABILITY CRITERION OF THE DISPERSION TERM
<<<<<<< Updated upstream
 = 0.6208E-02(WHEN MIN. R.F.=1)  AT K=   3, I=   2, J=  31
     1 CALLS TO GCG PACKAGE FOR TRANSPORT TIME STEP   6 IN FLOW TIME STEP  19 STRESS PERIOD   2
    18 TOTAL ITERATIONS
0WARNING: NUMERICAL OSCILLATION ENCOUNTERED
 ONE OR MORE CELL CONCENTRATIONS LESS THAN CRHOREF
 SMALLEST DENSITY =  0.100E+04
 AT CELL (I,J,K) = (   1,  44,  28)
=======
 = 0.6711E-02(WHEN MIN. R.F.=1)  AT K=   3, I=   2, J=  30
     1 CALLS TO GCG PACKAGE FOR TRANSPORT TIME STEP   5 IN FLOW TIME STEP  21 STRESS PERIOD   2
    19 TOTAL ITERATIONS
0WARNING: NUMERICAL OSCILLATION ENCOUNTERED
 ONE OR MORE CELL CONCENTRATIONS LESS THAN CRHOREF
 SMALLEST DENSITY =  0.100E+04
 AT CELL (I,J,K) = (   3,  59,  26)
>>>>>>> Stashed changes

 
 SOLVING FOR HEAD 
 FLOW MODEL IS TRANSIENT
 FLOW MODEL CONTAINS CONSTANT-HEAD CELLS


 MAXIMUM STEPSIZE DURING WHICH ANY PARTICLE CANNOT MOVE MORE THAN ONE CELL
<<<<<<< Updated upstream
 = 0.1636    (WHEN MIN. R.F.=1)  AT K=   3, I=   2, J=  29

 MAXIMUM STEPSIZE WHICH MEETS STABILITY CRITERION OF THE ADVECTION TERM
 (FOR PURE FINITE-DIFFERENCE OPTION, MIXELM=0) 
 = 0.1134    (WHEN MIN. R.F.=1)  AT K=   3, I=   2, J=  28
=======
 = 0.1872    (WHEN MIN. R.F.=1)  AT K=   3, I=   2, J=  31

 MAXIMUM STEPSIZE WHICH MEETS STABILITY CRITERION OF THE ADVECTION TERM
 (FOR PURE FINITE-DIFFERENCE OPTION, MIXELM=0) 
 = 0.1250    (WHEN MIN. R.F.=1)  AT K=   3, I=   2, J=  30
>>>>>>> Stashed changes


 TOTAL NUMBER OF POINT SOURCES/SINKS PRESENT IN THE FLOW MODEL =   240

 MAXIMUM STEPSIZE WHICH MEETS STABILITY CRITERION OF THE SINK & SOURCE TERM
 = 0.1000E+31(WHEN MIN. R.F.=1)  AT K=   0, I=   0, J=   0

 MAXIMUM STEPSIZE WHICH MEETS STABILITY CRITERION OF THE DISPERSION TERM
<<<<<<< Updated upstream
 = 0.6208E-02(WHEN MIN. R.F.=1)  AT K=   3, I=   2, J=  31
     1 CALLS TO GCG PACKAGE FOR TRANSPORT TIME STEP   7 IN FLOW TIME STEP  19 STRESS PERIOD   2
    18 TOTAL ITERATIONS
0WARNING: NUMERICAL OSCILLATION ENCOUNTERED
 ONE OR MORE CELL CONCENTRATIONS LESS THAN CRHOREF
 SMALLEST DENSITY =  0.100E+04
 AT CELL (I,J,K) = (   1,  44,  28)
=======
 = 0.6711E-02(WHEN MIN. R.F.=1)  AT K=   3, I=   2, J=  30
     1 CALLS TO GCG PACKAGE FOR TRANSPORT TIME STEP   6 IN FLOW TIME STEP  21 STRESS PERIOD   2
    19 TOTAL ITERATIONS
0WARNING: NUMERICAL OSCILLATION ENCOUNTERED
 ONE OR MORE CELL CONCENTRATIONS LESS THAN CRHOREF
 SMALLEST DENSITY =  0.100E+04
 AT CELL (I,J,K) = (   3,  59,  26)
>>>>>>> Stashed changes

 
 SOLVING FOR HEAD 
 FLOW MODEL IS TRANSIENT
 FLOW MODEL CONTAINS CONSTANT-HEAD CELLS


 MAXIMUM STEPSIZE DURING WHICH ANY PARTICLE CANNOT MOVE MORE THAN ONE CELL
<<<<<<< Updated upstream
 = 0.1636    (WHEN MIN. R.F.=1)  AT K=   3, I=   2, J=  29

 MAXIMUM STEPSIZE WHICH MEETS STABILITY CRITERION OF THE ADVECTION TERM
 (FOR PURE FINITE-DIFFERENCE OPTION, MIXELM=0) 
 = 0.1134    (WHEN MIN. R.F.=1)  AT K=   3, I=   2, J=  28
=======
 = 0.1872    (WHEN MIN. R.F.=1)  AT K=   3, I=   2, J=  31

 MAXIMUM STEPSIZE WHICH MEETS STABILITY CRITERION OF THE ADVECTION TERM
 (FOR PURE FINITE-DIFFERENCE OPTION, MIXELM=0) 
 = 0.1250    (WHEN MIN. R.F.=1)  AT K=   3, I=   2, J=  30
>>>>>>> Stashed changes


 TOTAL NUMBER OF POINT SOURCES/SINKS PRESENT IN THE FLOW MODEL =   240

 MAXIMUM STEPSIZE WHICH MEETS STABILITY CRITERION OF THE SINK & SOURCE TERM
 = 0.1000E+31(WHEN MIN. R.F.=1)  AT K=   0, I=   0, J=   0

 MAXIMUM STEPSIZE WHICH MEETS STABILITY CRITERION OF THE DISPERSION TERM
<<<<<<< Updated upstream
 = 0.6208E-02(WHEN MIN. R.F.=1)  AT K=   3, I=   2, J=  31
     1 CALLS TO GCG PACKAGE FOR TRANSPORT TIME STEP   8 IN FLOW TIME STEP  19 STRESS PERIOD   2
    18 TOTAL ITERATIONS
0WARNING: NUMERICAL OSCILLATION ENCOUNTERED
 ONE OR MORE CELL CONCENTRATIONS LESS THAN CRHOREF
 SMALLEST DENSITY =  0.100E+04
 AT CELL (I,J,K) = (   1,  44,  28)
=======
 = 0.6711E-02(WHEN MIN. R.F.=1)  AT K=   3, I=   2, J=  30
     1 CALLS TO GCG PACKAGE FOR TRANSPORT TIME STEP   7 IN FLOW TIME STEP  21 STRESS PERIOD   2
    19 TOTAL ITERATIONS
0WARNING: NUMERICAL OSCILLATION ENCOUNTERED
 ONE OR MORE CELL CONCENTRATIONS LESS THAN CRHOREF
 SMALLEST DENSITY =  0.100E+04
 AT CELL (I,J,K) = (   3,  59,  26)
>>>>>>> Stashed changes

 
 SOLVING FOR HEAD 
 FLOW MODEL IS TRANSIENT
 FLOW MODEL CONTAINS CONSTANT-HEAD CELLS


 MAXIMUM STEPSIZE DURING WHICH ANY PARTICLE CANNOT MOVE MORE THAN ONE CELL
<<<<<<< Updated upstream
 = 0.1636    (WHEN MIN. R.F.=1)  AT K=   3, I=   2, J=  29

 MAXIMUM STEPSIZE WHICH MEETS STABILITY CRITERION OF THE ADVECTION TERM
 (FOR PURE FINITE-DIFFERENCE OPTION, MIXELM=0) 
 = 0.1134    (WHEN MIN. R.F.=1)  AT K=   3, I=   2, J=  28
=======
 = 0.1872    (WHEN MIN. R.F.=1)  AT K=   3, I=   2, J=  31

 MAXIMUM STEPSIZE WHICH MEETS STABILITY CRITERION OF THE ADVECTION TERM
 (FOR PURE FINITE-DIFFERENCE OPTION, MIXELM=0) 
 = 0.1250    (WHEN MIN. R.F.=1)  AT K=   3, I=   2, J=  30
>>>>>>> Stashed changes


 TOTAL NUMBER OF POINT SOURCES/SINKS PRESENT IN THE FLOW MODEL =   240

 MAXIMUM STEPSIZE WHICH MEETS STABILITY CRITERION OF THE SINK & SOURCE TERM
 = 0.1000E+31(WHEN MIN. R.F.=1)  AT K=   0, I=   0, J=   0

 MAXIMUM STEPSIZE WHICH MEETS STABILITY CRITERION OF THE DISPERSION TERM
<<<<<<< Updated upstream
 = 0.6208E-02(WHEN MIN. R.F.=1)  AT K=   3, I=   2, J=  31
     1 CALLS TO GCG PACKAGE FOR TRANSPORT TIME STEP   9 IN FLOW TIME STEP  19 STRESS PERIOD   2
     8 TOTAL ITERATIONS
  MAXIMUM CONCENTRATION CHANGES FOR EACH ITERATION:
  MAX. CHANGE LAYER,ROW,COL MAX. CHANGE LAYER,ROW,COL MAX. CHANGE LAYER,ROW,COL MAX. CHANGE LAYER,ROW,COL MAX. CHANGE LAYER,ROW,COL
 ------------------------------------------------------------------------------------------------------------------------------------
   0.4451E-03 ( 12,  3, 54)  0.4982E-04 (  6,  1, 56)  0.9595E-05 (  4,  2, 46)  0.3870E-05 (  3,  3, 31)  0.1569E-05 (  3,  3, 30)
   0.7309E-06 (  3,  3, 31)  0.1938E-06 (  3,  3, 30)  0.5894E-07 (  3,  3, 29)
0WARNING: NUMERICAL OSCILLATION ENCOUNTERED
 ONE OR MORE CELL CONCENTRATIONS LESS THAN CRHOREF
 SMALLEST DENSITY =  0.100E+04
 AT CELL (I,J,K) = (   1,  44,  28)



                                          ================================================
                                                         FROM TIME =   20.000     TO    21.000    
=======
 = 0.6711E-02(WHEN MIN. R.F.=1)  AT K=   3, I=   2, J=  30
     1 CALLS TO GCG PACKAGE FOR TRANSPORT TIME STEP   8 IN FLOW TIME STEP  21 STRESS PERIOD   2
     7 TOTAL ITERATIONS
  MAXIMUM CONCENTRATION CHANGES FOR EACH ITERATION:
  MAX. CHANGE LAYER,ROW,COL MAX. CHANGE LAYER,ROW,COL MAX. CHANGE LAYER,ROW,COL MAX. CHANGE LAYER,ROW,COL MAX. CHANGE LAYER,ROW,COL
 ------------------------------------------------------------------------------------------------------------------------------------
   0.3447E-03 ( 13,  2, 53)  0.3062E-04 (  6,  1, 52)  0.7999E-05 (  4,  2, 44)  0.2915E-05 (  3,  2, 37)  0.7012E-06 (  4,  2, 37)
   0.2431E-06 (  3,  1, 31)  0.6800E-07 (  4,  3, 27)
 UBDSV1 SAVING "         STORAGE" ON UNIT  53 AT TIME STEP 21, STRESS PERIOD   2
 UBDSV2 SAVING "   CONSTANT HEAD" ON UNIT  53 AT TIME STEP 21, STRESS PERIOD   2
 UBDSV1 SAVING "FLOW RIGHT FACE " ON UNIT  53 AT TIME STEP 21, STRESS PERIOD   2
 UBDSV1 SAVING "FLOW FRONT FACE " ON UNIT  53 AT TIME STEP 21, STRESS PERIOD   2
 UBDSV1 SAVING "FLOW LOWER FACE " ON UNIT  53 AT TIME STEP 21, STRESS PERIOD   2
 UBDSV1 SAVING "            DCDT" ON UNIT  53 AT TIME STEP 21, STRESS PERIOD   2
0WARNING: NUMERICAL OSCILLATION ENCOUNTERED
 ONE OR MORE CELL CONCENTRATIONS LESS THAN CRHOREF
 SMALLEST DENSITY =  0.100E+04
 AT CELL (I,J,K) = (   3,  59,  26)


 HEAD WILL BE SAVED ON UNIT   51 AT END OF TIME STEP  21, STRESS PERIOD    2


                                          ================================================
                                                         FROM TIME =   22.000     TO    23.000    
>>>>>>> Stashed changes

 
 SOLVING FOR HEAD 
 FLOW MODEL IS TRANSIENT
 FLOW MODEL CONTAINS CONSTANT-HEAD CELLS


 MAXIMUM STEPSIZE DURING WHICH ANY PARTICLE CANNOT MOVE MORE THAN ONE CELL
<<<<<<< Updated upstream
 = 0.1636    (WHEN MIN. R.F.=1)  AT K=   3, I=   2, J=  29

 MAXIMUM STEPSIZE WHICH MEETS STABILITY CRITERION OF THE ADVECTION TERM
 (FOR PURE FINITE-DIFFERENCE OPTION, MIXELM=0) 
 = 0.1134    (WHEN MIN. R.F.=1)  AT K=   3, I=   2, J=  28
=======
 = 0.1872    (WHEN MIN. R.F.=1)  AT K=   3, I=   2, J=  31

 MAXIMUM STEPSIZE WHICH MEETS STABILITY CRITERION OF THE ADVECTION TERM
 (FOR PURE FINITE-DIFFERENCE OPTION, MIXELM=0) 
 = 0.1250    (WHEN MIN. R.F.=1)  AT K=   3, I=   2, J=  30
>>>>>>> Stashed changes


 TOTAL NUMBER OF POINT SOURCES/SINKS PRESENT IN THE FLOW MODEL =   240

 MAXIMUM STEPSIZE WHICH MEETS STABILITY CRITERION OF THE SINK & SOURCE TERM
 = 0.1000E+31(WHEN MIN. R.F.=1)  AT K=   0, I=   0, J=   0

 MAXIMUM STEPSIZE WHICH MEETS STABILITY CRITERION OF THE DISPERSION TERM
<<<<<<< Updated upstream
 = 0.6208E-02(WHEN MIN. R.F.=1)  AT K=   3, I=   2, J=  31


     1 CALLS TO GCG PACKAGE FOR TRANSPORT TIME STEP   1 IN FLOW TIME STEP  20 STRESS PERIOD   2
    18 TOTAL ITERATIONS

 NO OUTPUT CONTROL FOR STRESS PERIOD    2   TIME STEP  20
0WARNING: NUMERICAL OSCILLATION ENCOUNTERED
 ONE OR MORE CELL CONCENTRATIONS LESS THAN CRHOREF
 SMALLEST DENSITY =  0.100E+04
 AT CELL (I,J,K) = (   1,  44,  28)
=======
 = 0.6711E-02(WHEN MIN. R.F.=1)  AT K=   3, I=   2, J=  30


     1 CALLS TO GCG PACKAGE FOR TRANSPORT TIME STEP   1 IN FLOW TIME STEP  22 STRESS PERIOD   2
    19 TOTAL ITERATIONS

 OUTPUT CONTROL FOR STRESS PERIOD    2   TIME STEP  22
    SAVE HEAD FOR ALL LAYERS
    SAVE BUDGET
0WARNING: NUMERICAL OSCILLATION ENCOUNTERED
 ONE OR MORE CELL CONCENTRATIONS LESS THAN CRHOREF
 SMALLEST DENSITY =  0.100E+04
 AT CELL (I,J,K) = (   3,  59,  26)
>>>>>>> Stashed changes

 
 SOLVING FOR HEAD 
 FLOW MODEL IS TRANSIENT
 FLOW MODEL CONTAINS CONSTANT-HEAD CELLS


 MAXIMUM STEPSIZE DURING WHICH ANY PARTICLE CANNOT MOVE MORE THAN ONE CELL
<<<<<<< Updated upstream
 = 0.1636    (WHEN MIN. R.F.=1)  AT K=   3, I=   2, J=  29

 MAXIMUM STEPSIZE WHICH MEETS STABILITY CRITERION OF THE ADVECTION TERM
 (FOR PURE FINITE-DIFFERENCE OPTION, MIXELM=0) 
 = 0.1134    (WHEN MIN. R.F.=1)  AT K=   3, I=   2, J=  28
=======
 = 0.1872    (WHEN MIN. R.F.=1)  AT K=   3, I=   2, J=  31

 MAXIMUM STEPSIZE WHICH MEETS STABILITY CRITERION OF THE ADVECTION TERM
 (FOR PURE FINITE-DIFFERENCE OPTION, MIXELM=0) 
 = 0.1250    (WHEN MIN. R.F.=1)  AT K=   3, I=   2, J=  30
>>>>>>> Stashed changes


 TOTAL NUMBER OF POINT SOURCES/SINKS PRESENT IN THE FLOW MODEL =   240

 MAXIMUM STEPSIZE WHICH MEETS STABILITY CRITERION OF THE SINK & SOURCE TERM
 = 0.1000E+31(WHEN MIN. R.F.=1)  AT K=   0, I=   0, J=   0

 MAXIMUM STEPSIZE WHICH MEETS STABILITY CRITERION OF THE DISPERSION TERM
<<<<<<< Updated upstream
 = 0.6208E-02(WHEN MIN. R.F.=1)  AT K=   3, I=   2, J=  31
     1 CALLS TO GCG PACKAGE FOR TRANSPORT TIME STEP   2 IN FLOW TIME STEP  20 STRESS PERIOD   2
    18 TOTAL ITERATIONS
0WARNING: NUMERICAL OSCILLATION ENCOUNTERED
 ONE OR MORE CELL CONCENTRATIONS LESS THAN CRHOREF
 SMALLEST DENSITY =  0.100E+04
 AT CELL (I,J,K) = (   1,  44,  28)
=======
 = 0.6711E-02(WHEN MIN. R.F.=1)  AT K=   3, I=   2, J=  30
     1 CALLS TO GCG PACKAGE FOR TRANSPORT TIME STEP   2 IN FLOW TIME STEP  22 STRESS PERIOD   2
    19 TOTAL ITERATIONS
0WARNING: NUMERICAL OSCILLATION ENCOUNTERED
 ONE OR MORE CELL CONCENTRATIONS LESS THAN CRHOREF
 SMALLEST DENSITY =  0.100E+04
 AT CELL (I,J,K) = (   3,  59,  26)
>>>>>>> Stashed changes

 
 SOLVING FOR HEAD 
 FLOW MODEL IS TRANSIENT
 FLOW MODEL CONTAINS CONSTANT-HEAD CELLS


 MAXIMUM STEPSIZE DURING WHICH ANY PARTICLE CANNOT MOVE MORE THAN ONE CELL
<<<<<<< Updated upstream
 = 0.1636    (WHEN MIN. R.F.=1)  AT K=   3, I=   2, J=  29

 MAXIMUM STEPSIZE WHICH MEETS STABILITY CRITERION OF THE ADVECTION TERM
 (FOR PURE FINITE-DIFFERENCE OPTION, MIXELM=0) 
 = 0.1134    (WHEN MIN. R.F.=1)  AT K=   3, I=   2, J=  28
=======
 = 0.1872    (WHEN MIN. R.F.=1)  AT K=   3, I=   2, J=  31

 MAXIMUM STEPSIZE WHICH MEETS STABILITY CRITERION OF THE ADVECTION TERM
 (FOR PURE FINITE-DIFFERENCE OPTION, MIXELM=0) 
 = 0.1250    (WHEN MIN. R.F.=1)  AT K=   3, I=   2, J=  30
>>>>>>> Stashed changes


 TOTAL NUMBER OF POINT SOURCES/SINKS PRESENT IN THE FLOW MODEL =   240

 MAXIMUM STEPSIZE WHICH MEETS STABILITY CRITERION OF THE SINK & SOURCE TERM
 = 0.1000E+31(WHEN MIN. R.F.=1)  AT K=   0, I=   0, J=   0

 MAXIMUM STEPSIZE WHICH MEETS STABILITY CRITERION OF THE DISPERSION TERM
<<<<<<< Updated upstream
 = 0.6208E-02(WHEN MIN. R.F.=1)  AT K=   3, I=   2, J=  31
     1 CALLS TO GCG PACKAGE FOR TRANSPORT TIME STEP   3 IN FLOW TIME STEP  20 STRESS PERIOD   2
    18 TOTAL ITERATIONS
0WARNING: NUMERICAL OSCILLATION ENCOUNTERED
 ONE OR MORE CELL CONCENTRATIONS LESS THAN CRHOREF
 SMALLEST DENSITY =  0.100E+04
 AT CELL (I,J,K) = (   1,  44,  28)
=======
 = 0.6711E-02(WHEN MIN. R.F.=1)  AT K=   3, I=   2, J=  30
     1 CALLS TO GCG PACKAGE FOR TRANSPORT TIME STEP   3 IN FLOW TIME STEP  22 STRESS PERIOD   2
    19 TOTAL ITERATIONS
0WARNING: NUMERICAL OSCILLATION ENCOUNTERED
 ONE OR MORE CELL CONCENTRATIONS LESS THAN CRHOREF
 SMALLEST DENSITY =  0.100E+04
 AT CELL (I,J,K) = (   3,  60,  26)
>>>>>>> Stashed changes

 
 SOLVING FOR HEAD 
 FLOW MODEL IS TRANSIENT
 FLOW MODEL CONTAINS CONSTANT-HEAD CELLS


 MAXIMUM STEPSIZE DURING WHICH ANY PARTICLE CANNOT MOVE MORE THAN ONE CELL
<<<<<<< Updated upstream
 = 0.1636    (WHEN MIN. R.F.=1)  AT K=   3, I=   2, J=  29

 MAXIMUM STEPSIZE WHICH MEETS STABILITY CRITERION OF THE ADVECTION TERM
 (FOR PURE FINITE-DIFFERENCE OPTION, MIXELM=0) 
 = 0.1134    (WHEN MIN. R.F.=1)  AT K=   3, I=   2, J=  28
=======
 = 0.1872    (WHEN MIN. R.F.=1)  AT K=   3, I=   2, J=  31

 MAXIMUM STEPSIZE WHICH MEETS STABILITY CRITERION OF THE ADVECTION TERM
 (FOR PURE FINITE-DIFFERENCE OPTION, MIXELM=0) 
 = 0.1250    (WHEN MIN. R.F.=1)  AT K=   3, I=   2, J=  30
>>>>>>> Stashed changes


 TOTAL NUMBER OF POINT SOURCES/SINKS PRESENT IN THE FLOW MODEL =   240

 MAXIMUM STEPSIZE WHICH MEETS STABILITY CRITERION OF THE SINK & SOURCE TERM
 = 0.1000E+31(WHEN MIN. R.F.=1)  AT K=   0, I=   0, J=   0

 MAXIMUM STEPSIZE WHICH MEETS STABILITY CRITERION OF THE DISPERSION TERM
<<<<<<< Updated upstream
 = 0.6208E-02(WHEN MIN. R.F.=1)  AT K=   3, I=   2, J=  31
     1 CALLS TO GCG PACKAGE FOR TRANSPORT TIME STEP   4 IN FLOW TIME STEP  20 STRESS PERIOD   2
    18 TOTAL ITERATIONS
0WARNING: NUMERICAL OSCILLATION ENCOUNTERED
 ONE OR MORE CELL CONCENTRATIONS LESS THAN CRHOREF
 SMALLEST DENSITY =  0.100E+04
 AT CELL (I,J,K) = (   1,  44,  28)
=======
 = 0.6711E-02(WHEN MIN. R.F.=1)  AT K=   3, I=   2, J=  30
     1 CALLS TO GCG PACKAGE FOR TRANSPORT TIME STEP   4 IN FLOW TIME STEP  22 STRESS PERIOD   2
    19 TOTAL ITERATIONS
0WARNING: NUMERICAL OSCILLATION ENCOUNTERED
 ONE OR MORE CELL CONCENTRATIONS LESS THAN CRHOREF
 SMALLEST DENSITY =  0.100E+04
 AT CELL (I,J,K) = (   3,  60,  26)
>>>>>>> Stashed changes

 
 SOLVING FOR HEAD 
 FLOW MODEL IS TRANSIENT
 FLOW MODEL CONTAINS CONSTANT-HEAD CELLS


 MAXIMUM STEPSIZE DURING WHICH ANY PARTICLE CANNOT MOVE MORE THAN ONE CELL
<<<<<<< Updated upstream
 = 0.1636    (WHEN MIN. R.F.=1)  AT K=   3, I=   2, J=  29

 MAXIMUM STEPSIZE WHICH MEETS STABILITY CRITERION OF THE ADVECTION TERM
 (FOR PURE FINITE-DIFFERENCE OPTION, MIXELM=0) 
 = 0.1134    (WHEN MIN. R.F.=1)  AT K=   3, I=   2, J=  28
=======
 = 0.1872    (WHEN MIN. R.F.=1)  AT K=   3, I=   2, J=  31

 MAXIMUM STEPSIZE WHICH MEETS STABILITY CRITERION OF THE ADVECTION TERM
 (FOR PURE FINITE-DIFFERENCE OPTION, MIXELM=0) 
 = 0.1250    (WHEN MIN. R.F.=1)  AT K=   3, I=   2, J=  30
>>>>>>> Stashed changes


 TOTAL NUMBER OF POINT SOURCES/SINKS PRESENT IN THE FLOW MODEL =   240

 MAXIMUM STEPSIZE WHICH MEETS STABILITY CRITERION OF THE SINK & SOURCE TERM
 = 0.1000E+31(WHEN MIN. R.F.=1)  AT K=   0, I=   0, J=   0

 MAXIMUM STEPSIZE WHICH MEETS STABILITY CRITERION OF THE DISPERSION TERM
<<<<<<< Updated upstream
 = 0.6208E-02(WHEN MIN. R.F.=1)  AT K=   3, I=   2, J=  31
     1 CALLS TO GCG PACKAGE FOR TRANSPORT TIME STEP   5 IN FLOW TIME STEP  20 STRESS PERIOD   2
    18 TOTAL ITERATIONS
0WARNING: NUMERICAL OSCILLATION ENCOUNTERED
 ONE OR MORE CELL CONCENTRATIONS LESS THAN CRHOREF
 SMALLEST DENSITY =  0.100E+04
 AT CELL (I,J,K) = (   1,  44,  28)
=======
 = 0.6711E-02(WHEN MIN. R.F.=1)  AT K=   3, I=   2, J=  30
     1 CALLS TO GCG PACKAGE FOR TRANSPORT TIME STEP   5 IN FLOW TIME STEP  22 STRESS PERIOD   2
    19 TOTAL ITERATIONS
0WARNING: NUMERICAL OSCILLATION ENCOUNTERED
 ONE OR MORE CELL CONCENTRATIONS LESS THAN CRHOREF
 SMALLEST DENSITY =  0.100E+04
 AT CELL (I,J,K) = (   3,  60,  26)
>>>>>>> Stashed changes

 
 SOLVING FOR HEAD 
 FLOW MODEL IS TRANSIENT
 FLOW MODEL CONTAINS CONSTANT-HEAD CELLS


 MAXIMUM STEPSIZE DURING WHICH ANY PARTICLE CANNOT MOVE MORE THAN ONE CELL
<<<<<<< Updated upstream
 = 0.1636    (WHEN MIN. R.F.=1)  AT K=   3, I=   2, J=  29

 MAXIMUM STEPSIZE WHICH MEETS STABILITY CRITERION OF THE ADVECTION TERM
 (FOR PURE FINITE-DIFFERENCE OPTION, MIXELM=0) 
 = 0.1134    (WHEN MIN. R.F.=1)  AT K=   3, I=   2, J=  28
=======
 = 0.1872    (WHEN MIN. R.F.=1)  AT K=   3, I=   2, J=  31

 MAXIMUM STEPSIZE WHICH MEETS STABILITY CRITERION OF THE ADVECTION TERM
 (FOR PURE FINITE-DIFFERENCE OPTION, MIXELM=0) 
 = 0.1250    (WHEN MIN. R.F.=1)  AT K=   3, I=   2, J=  30
>>>>>>> Stashed changes


 TOTAL NUMBER OF POINT SOURCES/SINKS PRESENT IN THE FLOW MODEL =   240

 MAXIMUM STEPSIZE WHICH MEETS STABILITY CRITERION OF THE SINK & SOURCE TERM
 = 0.1000E+31(WHEN MIN. R.F.=1)  AT K=   0, I=   0, J=   0

 MAXIMUM STEPSIZE WHICH MEETS STABILITY CRITERION OF THE DISPERSION TERM
<<<<<<< Updated upstream
 = 0.6208E-02(WHEN MIN. R.F.=1)  AT K=   3, I=   2, J=  31
     1 CALLS TO GCG PACKAGE FOR TRANSPORT TIME STEP   6 IN FLOW TIME STEP  20 STRESS PERIOD   2
    18 TOTAL ITERATIONS
0WARNING: NUMERICAL OSCILLATION ENCOUNTERED
 ONE OR MORE CELL CONCENTRATIONS LESS THAN CRHOREF
 SMALLEST DENSITY =  0.100E+04
 AT CELL (I,J,K) = (   1,  44,  28)
=======
 = 0.6711E-02(WHEN MIN. R.F.=1)  AT K=   3, I=   2, J=  30
     1 CALLS TO GCG PACKAGE FOR TRANSPORT TIME STEP   6 IN FLOW TIME STEP  22 STRESS PERIOD   2
    19 TOTAL ITERATIONS
0WARNING: NUMERICAL OSCILLATION ENCOUNTERED
 ONE OR MORE CELL CONCENTRATIONS LESS THAN CRHOREF
 SMALLEST DENSITY =  0.100E+04
 AT CELL (I,J,K) = (   3,  60,  26)
>>>>>>> Stashed changes

 
 SOLVING FOR HEAD 
 FLOW MODEL IS TRANSIENT
 FLOW MODEL CONTAINS CONSTANT-HEAD CELLS


 MAXIMUM STEPSIZE DURING WHICH ANY PARTICLE CANNOT MOVE MORE THAN ONE CELL
<<<<<<< Updated upstream
 = 0.1636    (WHEN MIN. R.F.=1)  AT K=   3, I=   2, J=  29

 MAXIMUM STEPSIZE WHICH MEETS STABILITY CRITERION OF THE ADVECTION TERM
 (FOR PURE FINITE-DIFFERENCE OPTION, MIXELM=0) 
 = 0.1134    (WHEN MIN. R.F.=1)  AT K=   3, I=   2, J=  28
=======
 = 0.1872    (WHEN MIN. R.F.=1)  AT K=   3, I=   2, J=  31

 MAXIMUM STEPSIZE WHICH MEETS STABILITY CRITERION OF THE ADVECTION TERM
 (FOR PURE FINITE-DIFFERENCE OPTION, MIXELM=0) 
 = 0.1250    (WHEN MIN. R.F.=1)  AT K=   3, I=   2, J=  30
>>>>>>> Stashed changes


 TOTAL NUMBER OF POINT SOURCES/SINKS PRESENT IN THE FLOW MODEL =   240

 MAXIMUM STEPSIZE WHICH MEETS STABILITY CRITERION OF THE SINK & SOURCE TERM
 = 0.1000E+31(WHEN MIN. R.F.=1)  AT K=   0, I=   0, J=   0

 MAXIMUM STEPSIZE WHICH MEETS STABILITY CRITERION OF THE DISPERSION TERM
<<<<<<< Updated upstream
 = 0.6208E-02(WHEN MIN. R.F.=1)  AT K=   3, I=   2, J=  31
     1 CALLS TO GCG PACKAGE FOR TRANSPORT TIME STEP   7 IN FLOW TIME STEP  20 STRESS PERIOD   2
    18 TOTAL ITERATIONS
0WARNING: NUMERICAL OSCILLATION ENCOUNTERED
 ONE OR MORE CELL CONCENTRATIONS LESS THAN CRHOREF
 SMALLEST DENSITY =  0.100E+04
 AT CELL (I,J,K) = (   1,  44,  28)
=======
 = 0.6710E-02(WHEN MIN. R.F.=1)  AT K=   3, I=   2, J=  30
     1 CALLS TO GCG PACKAGE FOR TRANSPORT TIME STEP   7 IN FLOW TIME STEP  22 STRESS PERIOD   2
    19 TOTAL ITERATIONS
0WARNING: NUMERICAL OSCILLATION ENCOUNTERED
 ONE OR MORE CELL CONCENTRATIONS LESS THAN CRHOREF
 SMALLEST DENSITY =  0.100E+04
 AT CELL (I,J,K) = (   3,  60,  26)
>>>>>>> Stashed changes

 
 SOLVING FOR HEAD 
 FLOW MODEL IS TRANSIENT
 FLOW MODEL CONTAINS CONSTANT-HEAD CELLS


 MAXIMUM STEPSIZE DURING WHICH ANY PARTICLE CANNOT MOVE MORE THAN ONE CELL
<<<<<<< Updated upstream
 = 0.1636    (WHEN MIN. R.F.=1)  AT K=   3, I=   2, J=  29

 MAXIMUM STEPSIZE WHICH MEETS STABILITY CRITERION OF THE ADVECTION TERM
 (FOR PURE FINITE-DIFFERENCE OPTION, MIXELM=0) 
 = 0.1134    (WHEN MIN. R.F.=1)  AT K=   3, I=   2, J=  28
=======
 = 0.1872    (WHEN MIN. R.F.=1)  AT K=   3, I=   2, J=  31

 MAXIMUM STEPSIZE WHICH MEETS STABILITY CRITERION OF THE ADVECTION TERM
 (FOR PURE FINITE-DIFFERENCE OPTION, MIXELM=0) 
 = 0.1250    (WHEN MIN. R.F.=1)  AT K=   3, I=   2, J=  30
>>>>>>> Stashed changes


 TOTAL NUMBER OF POINT SOURCES/SINKS PRESENT IN THE FLOW MODEL =   240

 MAXIMUM STEPSIZE WHICH MEETS STABILITY CRITERION OF THE SINK & SOURCE TERM
 = 0.1000E+31(WHEN MIN. R.F.=1)  AT K=   0, I=   0, J=   0

 MAXIMUM STEPSIZE WHICH MEETS STABILITY CRITERION OF THE DISPERSION TERM
<<<<<<< Updated upstream
 = 0.6208E-02(WHEN MIN. R.F.=1)  AT K=   3, I=   2, J=  31
     1 CALLS TO GCG PACKAGE FOR TRANSPORT TIME STEP   8 IN FLOW TIME STEP  20 STRESS PERIOD   2
    18 TOTAL ITERATIONS
0WARNING: NUMERICAL OSCILLATION ENCOUNTERED
 ONE OR MORE CELL CONCENTRATIONS LESS THAN CRHOREF
 SMALLEST DENSITY =  0.100E+04
 AT CELL (I,J,K) = (   1,  44,  28)
=======
 = 0.6710E-02(WHEN MIN. R.F.=1)  AT K=   3, I=   2, J=  30
     1 CALLS TO GCG PACKAGE FOR TRANSPORT TIME STEP   8 IN FLOW TIME STEP  22 STRESS PERIOD   2
     7 TOTAL ITERATIONS
  MAXIMUM CONCENTRATION CHANGES FOR EACH ITERATION:
  MAX. CHANGE LAYER,ROW,COL MAX. CHANGE LAYER,ROW,COL MAX. CHANGE LAYER,ROW,COL MAX. CHANGE LAYER,ROW,COL MAX. CHANGE LAYER,ROW,COL
 ------------------------------------------------------------------------------------------------------------------------------------
   0.3327E-03 ( 13,  2, 53)  0.2841E-04 (  6,  1, 52)  0.7355E-05 (  4,  2, 44)  0.2680E-05 (  3,  2, 37)  0.6459E-06 (  4,  2, 37)
   0.2258E-06 (  3,  1, 31)  0.6330E-07 (  4,  3, 27)
 UBDSV1 SAVING "         STORAGE" ON UNIT  53 AT TIME STEP 22, STRESS PERIOD   2
 UBDSV2 SAVING "   CONSTANT HEAD" ON UNIT  53 AT TIME STEP 22, STRESS PERIOD   2
 UBDSV1 SAVING "FLOW RIGHT FACE " ON UNIT  53 AT TIME STEP 22, STRESS PERIOD   2
 UBDSV1 SAVING "FLOW FRONT FACE " ON UNIT  53 AT TIME STEP 22, STRESS PERIOD   2
 UBDSV1 SAVING "FLOW LOWER FACE " ON UNIT  53 AT TIME STEP 22, STRESS PERIOD   2
 UBDSV1 SAVING "            DCDT" ON UNIT  53 AT TIME STEP 22, STRESS PERIOD   2
0WARNING: NUMERICAL OSCILLATION ENCOUNTERED
 ONE OR MORE CELL CONCENTRATIONS LESS THAN CRHOREF
 SMALLEST DENSITY =  0.100E+04
 AT CELL (I,J,K) = (   3,  60,  26)


 HEAD WILL BE SAVED ON UNIT   51 AT END OF TIME STEP  22, STRESS PERIOD    2


                                          ================================================
                                                         FROM TIME =   23.000     TO    24.000    
>>>>>>> Stashed changes

 
 SOLVING FOR HEAD 
 FLOW MODEL IS TRANSIENT
 FLOW MODEL CONTAINS CONSTANT-HEAD CELLS


 MAXIMUM STEPSIZE DURING WHICH ANY PARTICLE CANNOT MOVE MORE THAN ONE CELL
<<<<<<< Updated upstream
 = 0.1635    (WHEN MIN. R.F.=1)  AT K=   3, I=   2, J=  29

 MAXIMUM STEPSIZE WHICH MEETS STABILITY CRITERION OF THE ADVECTION TERM
 (FOR PURE FINITE-DIFFERENCE OPTION, MIXELM=0) 
 = 0.1134    (WHEN MIN. R.F.=1)  AT K=   3, I=   2, J=  28
=======
 = 0.1872    (WHEN MIN. R.F.=1)  AT K=   3, I=   2, J=  31

 MAXIMUM STEPSIZE WHICH MEETS STABILITY CRITERION OF THE ADVECTION TERM
 (FOR PURE FINITE-DIFFERENCE OPTION, MIXELM=0) 
 = 0.1250    (WHEN MIN. R.F.=1)  AT K=   3, I=   2, J=  30
>>>>>>> Stashed changes


 TOTAL NUMBER OF POINT SOURCES/SINKS PRESENT IN THE FLOW MODEL =   240

 MAXIMUM STEPSIZE WHICH MEETS STABILITY CRITERION OF THE SINK & SOURCE TERM
 = 0.1000E+31(WHEN MIN. R.F.=1)  AT K=   0, I=   0, J=   0

 MAXIMUM STEPSIZE WHICH MEETS STABILITY CRITERION OF THE DISPERSION TERM
<<<<<<< Updated upstream
 = 0.6208E-02(WHEN MIN. R.F.=1)  AT K=   3, I=   2, J=  31
     1 CALLS TO GCG PACKAGE FOR TRANSPORT TIME STEP   9 IN FLOW TIME STEP  20 STRESS PERIOD   2
     8 TOTAL ITERATIONS
  MAXIMUM CONCENTRATION CHANGES FOR EACH ITERATION:
  MAX. CHANGE LAYER,ROW,COL MAX. CHANGE LAYER,ROW,COL MAX. CHANGE LAYER,ROW,COL MAX. CHANGE LAYER,ROW,COL MAX. CHANGE LAYER,ROW,COL
 ------------------------------------------------------------------------------------------------------------------------------------
   0.4249E-03 ( 12,  3, 54)  0.4625E-04 (  6,  1, 56)  0.8799E-05 (  4,  2, 46)  0.3557E-05 (  3,  3, 31)  0.1447E-05 (  3,  3, 30)
   0.6733E-06 (  3,  3, 31)  0.1806E-06 (  3,  3, 30)  0.5488E-07 (  3,  3, 29)
0WARNING: NUMERICAL OSCILLATION ENCOUNTERED
 ONE OR MORE CELL CONCENTRATIONS LESS THAN CRHOREF
 SMALLEST DENSITY =  0.100E+04
 AT CELL (I,J,K) = (   1,  44,  28)



                                          ================================================
                                                         FROM TIME =   21.000     TO    22.000    
=======
 = 0.6710E-02(WHEN MIN. R.F.=1)  AT K=   3, I=   2, J=  30


     1 CALLS TO GCG PACKAGE FOR TRANSPORT TIME STEP   1 IN FLOW TIME STEP  23 STRESS PERIOD   2
    19 TOTAL ITERATIONS

 OUTPUT CONTROL FOR STRESS PERIOD    2   TIME STEP  23
    SAVE HEAD FOR ALL LAYERS
    SAVE BUDGET
0WARNING: NUMERICAL OSCILLATION ENCOUNTERED
 ONE OR MORE CELL CONCENTRATIONS LESS THAN CRHOREF
 SMALLEST DENSITY =  0.100E+04
 AT CELL (I,J,K) = (   3,  60,  26)
>>>>>>> Stashed changes

 
 SOLVING FOR HEAD 
 FLOW MODEL IS TRANSIENT
 FLOW MODEL CONTAINS CONSTANT-HEAD CELLS


 MAXIMUM STEPSIZE DURING WHICH ANY PARTICLE CANNOT MOVE MORE THAN ONE CELL
<<<<<<< Updated upstream
 = 0.1635    (WHEN MIN. R.F.=1)  AT K=   3, I=   2, J=  29

 MAXIMUM STEPSIZE WHICH MEETS STABILITY CRITERION OF THE ADVECTION TERM
 (FOR PURE FINITE-DIFFERENCE OPTION, MIXELM=0) 
 = 0.1134    (WHEN MIN. R.F.=1)  AT K=   3, I=   2, J=  28
=======
 = 0.1872    (WHEN MIN. R.F.=1)  AT K=   3, I=   2, J=  31

 MAXIMUM STEPSIZE WHICH MEETS STABILITY CRITERION OF THE ADVECTION TERM
 (FOR PURE FINITE-DIFFERENCE OPTION, MIXELM=0) 
 = 0.1250    (WHEN MIN. R.F.=1)  AT K=   3, I=   2, J=  30
>>>>>>> Stashed changes


 TOTAL NUMBER OF POINT SOURCES/SINKS PRESENT IN THE FLOW MODEL =   240

 MAXIMUM STEPSIZE WHICH MEETS STABILITY CRITERION OF THE SINK & SOURCE TERM
 = 0.1000E+31(WHEN MIN. R.F.=1)  AT K=   0, I=   0, J=   0

 MAXIMUM STEPSIZE WHICH MEETS STABILITY CRITERION OF THE DISPERSION TERM
<<<<<<< Updated upstream
 = 0.6208E-02(WHEN MIN. R.F.=1)  AT K=   3, I=   2, J=  31


     1 CALLS TO GCG PACKAGE FOR TRANSPORT TIME STEP   1 IN FLOW TIME STEP  21 STRESS PERIOD   2
    18 TOTAL ITERATIONS

 NO OUTPUT CONTROL FOR STRESS PERIOD    2   TIME STEP  21
0WARNING: NUMERICAL OSCILLATION ENCOUNTERED
 ONE OR MORE CELL CONCENTRATIONS LESS THAN CRHOREF
 SMALLEST DENSITY =  0.100E+04
 AT CELL (I,J,K) = (   1,  44,  28)
=======
 = 0.6710E-02(WHEN MIN. R.F.=1)  AT K=   3, I=   2, J=  30
     1 CALLS TO GCG PACKAGE FOR TRANSPORT TIME STEP   2 IN FLOW TIME STEP  23 STRESS PERIOD   2
    19 TOTAL ITERATIONS
0WARNING: NUMERICAL OSCILLATION ENCOUNTERED
 ONE OR MORE CELL CONCENTRATIONS LESS THAN CRHOREF
 SMALLEST DENSITY =  0.100E+04
 AT CELL (I,J,K) = (   3,  60,  26)
>>>>>>> Stashed changes

 
 SOLVING FOR HEAD 
 FLOW MODEL IS TRANSIENT
 FLOW MODEL CONTAINS CONSTANT-HEAD CELLS


 MAXIMUM STEPSIZE DURING WHICH ANY PARTICLE CANNOT MOVE MORE THAN ONE CELL
<<<<<<< Updated upstream
 = 0.1635    (WHEN MIN. R.F.=1)  AT K=   3, I=   2, J=  29

 MAXIMUM STEPSIZE WHICH MEETS STABILITY CRITERION OF THE ADVECTION TERM
 (FOR PURE FINITE-DIFFERENCE OPTION, MIXELM=0) 
 = 0.1134    (WHEN MIN. R.F.=1)  AT K=   3, I=   2, J=  28
=======
 = 0.1872    (WHEN MIN. R.F.=1)  AT K=   3, I=   2, J=  31

 MAXIMUM STEPSIZE WHICH MEETS STABILITY CRITERION OF THE ADVECTION TERM
 (FOR PURE FINITE-DIFFERENCE OPTION, MIXELM=0) 
 = 0.1250    (WHEN MIN. R.F.=1)  AT K=   3, I=   2, J=  30
>>>>>>> Stashed changes


 TOTAL NUMBER OF POINT SOURCES/SINKS PRESENT IN THE FLOW MODEL =   240

 MAXIMUM STEPSIZE WHICH MEETS STABILITY CRITERION OF THE SINK & SOURCE TERM
 = 0.1000E+31(WHEN MIN. R.F.=1)  AT K=   0, I=   0, J=   0

 MAXIMUM STEPSIZE WHICH MEETS STABILITY CRITERION OF THE DISPERSION TERM
<<<<<<< Updated upstream
 = 0.6207E-02(WHEN MIN. R.F.=1)  AT K=   3, I=   2, J=  31
     1 CALLS TO GCG PACKAGE FOR TRANSPORT TIME STEP   2 IN FLOW TIME STEP  21 STRESS PERIOD   2
    18 TOTAL ITERATIONS
0WARNING: NUMERICAL OSCILLATION ENCOUNTERED
 ONE OR MORE CELL CONCENTRATIONS LESS THAN CRHOREF
 SMALLEST DENSITY =  0.100E+04
 AT CELL (I,J,K) = (   1,  44,  28)
=======
 = 0.6710E-02(WHEN MIN. R.F.=1)  AT K=   3, I=   2, J=  30
     1 CALLS TO GCG PACKAGE FOR TRANSPORT TIME STEP   3 IN FLOW TIME STEP  23 STRESS PERIOD   2
    19 TOTAL ITERATIONS
0WARNING: NUMERICAL OSCILLATION ENCOUNTERED
 ONE OR MORE CELL CONCENTRATIONS LESS THAN CRHOREF
 SMALLEST DENSITY =  0.100E+04
 AT CELL (I,J,K) = (   3,  60,  26)
>>>>>>> Stashed changes

 
 SOLVING FOR HEAD 
 FLOW MODEL IS TRANSIENT
 FLOW MODEL CONTAINS CONSTANT-HEAD CELLS


 MAXIMUM STEPSIZE DURING WHICH ANY PARTICLE CANNOT MOVE MORE THAN ONE CELL
<<<<<<< Updated upstream
 = 0.1635    (WHEN MIN. R.F.=1)  AT K=   3, I=   2, J=  29

 MAXIMUM STEPSIZE WHICH MEETS STABILITY CRITERION OF THE ADVECTION TERM
 (FOR PURE FINITE-DIFFERENCE OPTION, MIXELM=0) 
 = 0.1134    (WHEN MIN. R.F.=1)  AT K=   3, I=   2, J=  28
=======
 = 0.1872    (WHEN MIN. R.F.=1)  AT K=   3, I=   2, J=  31

 MAXIMUM STEPSIZE WHICH MEETS STABILITY CRITERION OF THE ADVECTION TERM
 (FOR PURE FINITE-DIFFERENCE OPTION, MIXELM=0) 
 = 0.1250    (WHEN MIN. R.F.=1)  AT K=   3, I=   2, J=  30
>>>>>>> Stashed changes


 TOTAL NUMBER OF POINT SOURCES/SINKS PRESENT IN THE FLOW MODEL =   240

 MAXIMUM STEPSIZE WHICH MEETS STABILITY CRITERION OF THE SINK & SOURCE TERM
 = 0.1000E+31(WHEN MIN. R.F.=1)  AT K=   0, I=   0, J=   0

 MAXIMUM STEPSIZE WHICH MEETS STABILITY CRITERION OF THE DISPERSION TERM
<<<<<<< Updated upstream
 = 0.6207E-02(WHEN MIN. R.F.=1)  AT K=   3, I=   2, J=  31
     1 CALLS TO GCG PACKAGE FOR TRANSPORT TIME STEP   3 IN FLOW TIME STEP  21 STRESS PERIOD   2
    18 TOTAL ITERATIONS
0WARNING: NUMERICAL OSCILLATION ENCOUNTERED
 ONE OR MORE CELL CONCENTRATIONS LESS THAN CRHOREF
 SMALLEST DENSITY =  0.100E+04
 AT CELL (I,J,K) = (   1,  44,  28)
=======
 = 0.6710E-02(WHEN MIN. R.F.=1)  AT K=   3, I=   2, J=  30
     1 CALLS TO GCG PACKAGE FOR TRANSPORT TIME STEP   4 IN FLOW TIME STEP  23 STRESS PERIOD   2
    19 TOTAL ITERATIONS
0WARNING: NUMERICAL OSCILLATION ENCOUNTERED
 ONE OR MORE CELL CONCENTRATIONS LESS THAN CRHOREF
 SMALLEST DENSITY =  0.100E+04
 AT CELL (I,J,K) = (   3,  60,  26)
>>>>>>> Stashed changes

 
 SOLVING FOR HEAD 
 FLOW MODEL IS TRANSIENT
 FLOW MODEL CONTAINS CONSTANT-HEAD CELLS


 MAXIMUM STEPSIZE DURING WHICH ANY PARTICLE CANNOT MOVE MORE THAN ONE CELL
<<<<<<< Updated upstream
 = 0.1635    (WHEN MIN. R.F.=1)  AT K=   3, I=   2, J=  29

 MAXIMUM STEPSIZE WHICH MEETS STABILITY CRITERION OF THE ADVECTION TERM
 (FOR PURE FINITE-DIFFERENCE OPTION, MIXELM=0) 
 = 0.1134    (WHEN MIN. R.F.=1)  AT K=   3, I=   2, J=  28
=======
 = 0.1872    (WHEN MIN. R.F.=1)  AT K=   3, I=   2, J=  31

 MAXIMUM STEPSIZE WHICH MEETS STABILITY CRITERION OF THE ADVECTION TERM
 (FOR PURE FINITE-DIFFERENCE OPTION, MIXELM=0) 
 = 0.1250    (WHEN MIN. R.F.=1)  AT K=   3, I=   2, J=  30
>>>>>>> Stashed changes


 TOTAL NUMBER OF POINT SOURCES/SINKS PRESENT IN THE FLOW MODEL =   240

 MAXIMUM STEPSIZE WHICH MEETS STABILITY CRITERION OF THE SINK & SOURCE TERM
 = 0.1000E+31(WHEN MIN. R.F.=1)  AT K=   0, I=   0, J=   0

 MAXIMUM STEPSIZE WHICH MEETS STABILITY CRITERION OF THE DISPERSION TERM
<<<<<<< Updated upstream
 = 0.6207E-02(WHEN MIN. R.F.=1)  AT K=   3, I=   2, J=  31
     1 CALLS TO GCG PACKAGE FOR TRANSPORT TIME STEP   4 IN FLOW TIME STEP  21 STRESS PERIOD   2
    18 TOTAL ITERATIONS
0WARNING: NUMERICAL OSCILLATION ENCOUNTERED
 ONE OR MORE CELL CONCENTRATIONS LESS THAN CRHOREF
 SMALLEST DENSITY =  0.100E+04
 AT CELL (I,J,K) = (   1,  44,  28)
=======
 = 0.6710E-02(WHEN MIN. R.F.=1)  AT K=   3, I=   2, J=  30
     1 CALLS TO GCG PACKAGE FOR TRANSPORT TIME STEP   5 IN FLOW TIME STEP  23 STRESS PERIOD   2
    19 TOTAL ITERATIONS
0WARNING: NUMERICAL OSCILLATION ENCOUNTERED
 ONE OR MORE CELL CONCENTRATIONS LESS THAN CRHOREF
 SMALLEST DENSITY =  0.100E+04
 AT CELL (I,J,K) = (   3,  60,  26)
>>>>>>> Stashed changes

 
 SOLVING FOR HEAD 
 FLOW MODEL IS TRANSIENT
 FLOW MODEL CONTAINS CONSTANT-HEAD CELLS


 MAXIMUM STEPSIZE DURING WHICH ANY PARTICLE CANNOT MOVE MORE THAN ONE CELL
<<<<<<< Updated upstream
 = 0.1635    (WHEN MIN. R.F.=1)  AT K=   3, I=   2, J=  29

 MAXIMUM STEPSIZE WHICH MEETS STABILITY CRITERION OF THE ADVECTION TERM
 (FOR PURE FINITE-DIFFERENCE OPTION, MIXELM=0) 
 = 0.1134    (WHEN MIN. R.F.=1)  AT K=   3, I=   2, J=  28
=======
 = 0.1872    (WHEN MIN. R.F.=1)  AT K=   3, I=   2, J=  31

 MAXIMUM STEPSIZE WHICH MEETS STABILITY CRITERION OF THE ADVECTION TERM
 (FOR PURE FINITE-DIFFERENCE OPTION, MIXELM=0) 
 = 0.1250    (WHEN MIN. R.F.=1)  AT K=   3, I=   2, J=  30
>>>>>>> Stashed changes


 TOTAL NUMBER OF POINT SOURCES/SINKS PRESENT IN THE FLOW MODEL =   240

 MAXIMUM STEPSIZE WHICH MEETS STABILITY CRITERION OF THE SINK & SOURCE TERM
 = 0.1000E+31(WHEN MIN. R.F.=1)  AT K=   0, I=   0, J=   0

 MAXIMUM STEPSIZE WHICH MEETS STABILITY CRITERION OF THE DISPERSION TERM
<<<<<<< Updated upstream
 = 0.6207E-02(WHEN MIN. R.F.=1)  AT K=   3, I=   2, J=  31
     1 CALLS TO GCG PACKAGE FOR TRANSPORT TIME STEP   5 IN FLOW TIME STEP  21 STRESS PERIOD   2
    18 TOTAL ITERATIONS
0WARNING: NUMERICAL OSCILLATION ENCOUNTERED
 ONE OR MORE CELL CONCENTRATIONS LESS THAN CRHOREF
 SMALLEST DENSITY =  0.100E+04
 AT CELL (I,J,K) = (   1,  44,  28)
=======
 = 0.6710E-02(WHEN MIN. R.F.=1)  AT K=   3, I=   2, J=  30
     1 CALLS TO GCG PACKAGE FOR TRANSPORT TIME STEP   6 IN FLOW TIME STEP  23 STRESS PERIOD   2
    19 TOTAL ITERATIONS
0WARNING: NUMERICAL OSCILLATION ENCOUNTERED
 ONE OR MORE CELL CONCENTRATIONS LESS THAN CRHOREF
 SMALLEST DENSITY =  0.100E+04
 AT CELL (I,J,K) = (   3,  60,  26)
>>>>>>> Stashed changes

 
 SOLVING FOR HEAD 
 FLOW MODEL IS TRANSIENT
 FLOW MODEL CONTAINS CONSTANT-HEAD CELLS


 MAXIMUM STEPSIZE DURING WHICH ANY PARTICLE CANNOT MOVE MORE THAN ONE CELL
<<<<<<< Updated upstream
 = 0.1635    (WHEN MIN. R.F.=1)  AT K=   3, I=   2, J=  29

 MAXIMUM STEPSIZE WHICH MEETS STABILITY CRITERION OF THE ADVECTION TERM
 (FOR PURE FINITE-DIFFERENCE OPTION, MIXELM=0) 
 = 0.1134    (WHEN MIN. R.F.=1)  AT K=   3, I=   2, J=  28
=======
 = 0.1872    (WHEN MIN. R.F.=1)  AT K=   3, I=   2, J=  31

 MAXIMUM STEPSIZE WHICH MEETS STABILITY CRITERION OF THE ADVECTION TERM
 (FOR PURE FINITE-DIFFERENCE OPTION, MIXELM=0) 
 = 0.1250    (WHEN MIN. R.F.=1)  AT K=   3, I=   2, J=  30
>>>>>>> Stashed changes


 TOTAL NUMBER OF POINT SOURCES/SINKS PRESENT IN THE FLOW MODEL =   240

 MAXIMUM STEPSIZE WHICH MEETS STABILITY CRITERION OF THE SINK & SOURCE TERM
 = 0.1000E+31(WHEN MIN. R.F.=1)  AT K=   0, I=   0, J=   0

 MAXIMUM STEPSIZE WHICH MEETS STABILITY CRITERION OF THE DISPERSION TERM
<<<<<<< Updated upstream
 = 0.6207E-02(WHEN MIN. R.F.=1)  AT K=   3, I=   2, J=  31
     1 CALLS TO GCG PACKAGE FOR TRANSPORT TIME STEP   6 IN FLOW TIME STEP  21 STRESS PERIOD   2
    18 TOTAL ITERATIONS
0WARNING: NUMERICAL OSCILLATION ENCOUNTERED
 ONE OR MORE CELL CONCENTRATIONS LESS THAN CRHOREF
 SMALLEST DENSITY =  0.100E+04
 AT CELL (I,J,K) = (   1,  44,  28)
=======
 = 0.6710E-02(WHEN MIN. R.F.=1)  AT K=   3, I=   2, J=  30
     1 CALLS TO GCG PACKAGE FOR TRANSPORT TIME STEP   7 IN FLOW TIME STEP  23 STRESS PERIOD   2
    19 TOTAL ITERATIONS
0WARNING: NUMERICAL OSCILLATION ENCOUNTERED
 ONE OR MORE CELL CONCENTRATIONS LESS THAN CRHOREF
 SMALLEST DENSITY =  0.100E+04
 AT CELL (I,J,K) = (   3,  58,  27)
>>>>>>> Stashed changes

 
 SOLVING FOR HEAD 
 FLOW MODEL IS TRANSIENT
 FLOW MODEL CONTAINS CONSTANT-HEAD CELLS


 MAXIMUM STEPSIZE DURING WHICH ANY PARTICLE CANNOT MOVE MORE THAN ONE CELL
<<<<<<< Updated upstream
 = 0.1635    (WHEN MIN. R.F.=1)  AT K=   3, I=   2, J=  29

 MAXIMUM STEPSIZE WHICH MEETS STABILITY CRITERION OF THE ADVECTION TERM
 (FOR PURE FINITE-DIFFERENCE OPTION, MIXELM=0) 
 = 0.1134    (WHEN MIN. R.F.=1)  AT K=   3, I=   2, J=  28
=======
 = 0.1872    (WHEN MIN. R.F.=1)  AT K=   3, I=   2, J=  31

 MAXIMUM STEPSIZE WHICH MEETS STABILITY CRITERION OF THE ADVECTION TERM
 (FOR PURE FINITE-DIFFERENCE OPTION, MIXELM=0) 
 = 0.1250    (WHEN MIN. R.F.=1)  AT K=   3, I=   2, J=  30
>>>>>>> Stashed changes


 TOTAL NUMBER OF POINT SOURCES/SINKS PRESENT IN THE FLOW MODEL =   240

 MAXIMUM STEPSIZE WHICH MEETS STABILITY CRITERION OF THE SINK & SOURCE TERM
 = 0.1000E+31(WHEN MIN. R.F.=1)  AT K=   0, I=   0, J=   0

 MAXIMUM STEPSIZE WHICH MEETS STABILITY CRITERION OF THE DISPERSION TERM
<<<<<<< Updated upstream
 = 0.6207E-02(WHEN MIN. R.F.=1)  AT K=   3, I=   2, J=  31
     1 CALLS TO GCG PACKAGE FOR TRANSPORT TIME STEP   7 IN FLOW TIME STEP  21 STRESS PERIOD   2
    18 TOTAL ITERATIONS
0WARNING: NUMERICAL OSCILLATION ENCOUNTERED
 ONE OR MORE CELL CONCENTRATIONS LESS THAN CRHOREF
 SMALLEST DENSITY =  0.100E+04
 AT CELL (I,J,K) = (   1,  44,  28)
=======
 = 0.6710E-02(WHEN MIN. R.F.=1)  AT K=   3, I=   2, J=  30
     1 CALLS TO GCG PACKAGE FOR TRANSPORT TIME STEP   8 IN FLOW TIME STEP  23 STRESS PERIOD   2
     7 TOTAL ITERATIONS
  MAXIMUM CONCENTRATION CHANGES FOR EACH ITERATION:
  MAX. CHANGE LAYER,ROW,COL MAX. CHANGE LAYER,ROW,COL MAX. CHANGE LAYER,ROW,COL MAX. CHANGE LAYER,ROW,COL MAX. CHANGE LAYER,ROW,COL
 ------------------------------------------------------------------------------------------------------------------------------------
   0.3212E-03 ( 13,  2, 53)  0.2642E-04 (  6,  1, 52)  0.6783E-05 (  4,  2, 44)  0.2471E-05 (  3,  2, 37)  0.5969E-06 (  4,  2, 37)
   0.2102E-06 (  3,  1, 31)  0.5908E-07 (  4,  3, 27)
 UBDSV1 SAVING "         STORAGE" ON UNIT  53 AT TIME STEP 23, STRESS PERIOD   2
 UBDSV2 SAVING "   CONSTANT HEAD" ON UNIT  53 AT TIME STEP 23, STRESS PERIOD   2
 UBDSV1 SAVING "FLOW RIGHT FACE " ON UNIT  53 AT TIME STEP 23, STRESS PERIOD   2
 UBDSV1 SAVING "FLOW FRONT FACE " ON UNIT  53 AT TIME STEP 23, STRESS PERIOD   2
 UBDSV1 SAVING "FLOW LOWER FACE " ON UNIT  53 AT TIME STEP 23, STRESS PERIOD   2
 UBDSV1 SAVING "            DCDT" ON UNIT  53 AT TIME STEP 23, STRESS PERIOD   2
0WARNING: NUMERICAL OSCILLATION ENCOUNTERED
 ONE OR MORE CELL CONCENTRATIONS LESS THAN CRHOREF
 SMALLEST DENSITY =  0.100E+04
 AT CELL (I,J,K) = (   3,  58,  27)


 HEAD WILL BE SAVED ON UNIT   51 AT END OF TIME STEP  23, STRESS PERIOD    2


                                          ================================================
                                                         FROM TIME =   24.000     TO    25.000    
>>>>>>> Stashed changes

 
 SOLVING FOR HEAD 
 FLOW MODEL IS TRANSIENT
 FLOW MODEL CONTAINS CONSTANT-HEAD CELLS


 MAXIMUM STEPSIZE DURING WHICH ANY PARTICLE CANNOT MOVE MORE THAN ONE CELL
<<<<<<< Updated upstream
 = 0.1635    (WHEN MIN. R.F.=1)  AT K=   3, I=   2, J=  29

 MAXIMUM STEPSIZE WHICH MEETS STABILITY CRITERION OF THE ADVECTION TERM
 (FOR PURE FINITE-DIFFERENCE OPTION, MIXELM=0) 
 = 0.1134    (WHEN MIN. R.F.=1)  AT K=   3, I=   2, J=  28
=======
 = 0.1872    (WHEN MIN. R.F.=1)  AT K=   3, I=   2, J=  31

 MAXIMUM STEPSIZE WHICH MEETS STABILITY CRITERION OF THE ADVECTION TERM
 (FOR PURE FINITE-DIFFERENCE OPTION, MIXELM=0) 
 = 0.1250    (WHEN MIN. R.F.=1)  AT K=   3, I=   2, J=  30
>>>>>>> Stashed changes


 TOTAL NUMBER OF POINT SOURCES/SINKS PRESENT IN THE FLOW MODEL =   240

 MAXIMUM STEPSIZE WHICH MEETS STABILITY CRITERION OF THE SINK & SOURCE TERM
 = 0.1000E+31(WHEN MIN. R.F.=1)  AT K=   0, I=   0, J=   0

 MAXIMUM STEPSIZE WHICH MEETS STABILITY CRITERION OF THE DISPERSION TERM
<<<<<<< Updated upstream
 = 0.6207E-02(WHEN MIN. R.F.=1)  AT K=   3, I=   2, J=  31
     1 CALLS TO GCG PACKAGE FOR TRANSPORT TIME STEP   8 IN FLOW TIME STEP  21 STRESS PERIOD   2
    18 TOTAL ITERATIONS
0WARNING: NUMERICAL OSCILLATION ENCOUNTERED
 ONE OR MORE CELL CONCENTRATIONS LESS THAN CRHOREF
 SMALLEST DENSITY =  0.100E+04
 AT CELL (I,J,K) = (   2,  39,  29)
=======
 = 0.6710E-02(WHEN MIN. R.F.=1)  AT K=   3, I=   2, J=  30


     1 CALLS TO GCG PACKAGE FOR TRANSPORT TIME STEP   1 IN FLOW TIME STEP  24 STRESS PERIOD   2
    18 TOTAL ITERATIONS

 OUTPUT CONTROL FOR STRESS PERIOD    2   TIME STEP  24
    SAVE HEAD FOR ALL LAYERS
    SAVE BUDGET
0WARNING: NUMERICAL OSCILLATION ENCOUNTERED
 ONE OR MORE CELL CONCENTRATIONS LESS THAN CRHOREF
 SMALLEST DENSITY =  0.100E+04
 AT CELL (I,J,K) = (   3,  58,  27)
>>>>>>> Stashed changes

 
 SOLVING FOR HEAD 
 FLOW MODEL IS TRANSIENT
 FLOW MODEL CONTAINS CONSTANT-HEAD CELLS


 MAXIMUM STEPSIZE DURING WHICH ANY PARTICLE CANNOT MOVE MORE THAN ONE CELL
<<<<<<< Updated upstream
 = 0.1635    (WHEN MIN. R.F.=1)  AT K=   3, I=   2, J=  29

 MAXIMUM STEPSIZE WHICH MEETS STABILITY CRITERION OF THE ADVECTION TERM
 (FOR PURE FINITE-DIFFERENCE OPTION, MIXELM=0) 
 = 0.1134    (WHEN MIN. R.F.=1)  AT K=   3, I=   2, J=  28
=======
 = 0.1872    (WHEN MIN. R.F.=1)  AT K=   3, I=   2, J=  31

 MAXIMUM STEPSIZE WHICH MEETS STABILITY CRITERION OF THE ADVECTION TERM
 (FOR PURE FINITE-DIFFERENCE OPTION, MIXELM=0) 
 = 0.1250    (WHEN MIN. R.F.=1)  AT K=   3, I=   2, J=  30
>>>>>>> Stashed changes


 TOTAL NUMBER OF POINT SOURCES/SINKS PRESENT IN THE FLOW MODEL =   240

 MAXIMUM STEPSIZE WHICH MEETS STABILITY CRITERION OF THE SINK & SOURCE TERM
 = 0.1000E+31(WHEN MIN. R.F.=1)  AT K=   0, I=   0, J=   0

 MAXIMUM STEPSIZE WHICH MEETS STABILITY CRITERION OF THE DISPERSION TERM
<<<<<<< Updated upstream
 = 0.6207E-02(WHEN MIN. R.F.=1)  AT K=   3, I=   2, J=  31
     1 CALLS TO GCG PACKAGE FOR TRANSPORT TIME STEP   9 IN FLOW TIME STEP  21 STRESS PERIOD   2
     8 TOTAL ITERATIONS
  MAXIMUM CONCENTRATION CHANGES FOR EACH ITERATION:
  MAX. CHANGE LAYER,ROW,COL MAX. CHANGE LAYER,ROW,COL MAX. CHANGE LAYER,ROW,COL MAX. CHANGE LAYER,ROW,COL MAX. CHANGE LAYER,ROW,COL
 ------------------------------------------------------------------------------------------------------------------------------------
   0.4056E-03 ( 12,  3, 55)  0.4304E-04 (  6,  1, 56)  0.8092E-05 (  4,  2, 46)  0.3281E-05 (  3,  3, 31)  0.1338E-05 (  3,  3, 30)
   0.6220E-06 (  3,  3, 31)  0.1688E-06 (  3,  3, 30)  0.5123E-07 (  3,  3, 29)
0WARNING: NUMERICAL OSCILLATION ENCOUNTERED
 ONE OR MORE CELL CONCENTRATIONS LESS THAN CRHOREF
 SMALLEST DENSITY =  0.100E+04
 AT CELL (I,J,K) = (   2,  39,  29)



                                          ================================================
                                                         FROM TIME =   22.000     TO    23.000    
=======
 = 0.6710E-02(WHEN MIN. R.F.=1)  AT K=   3, I=   2, J=  30
     1 CALLS TO GCG PACKAGE FOR TRANSPORT TIME STEP   2 IN FLOW TIME STEP  24 STRESS PERIOD   2
    18 TOTAL ITERATIONS
0WARNING: NUMERICAL OSCILLATION ENCOUNTERED
 ONE OR MORE CELL CONCENTRATIONS LESS THAN CRHOREF
 SMALLEST DENSITY =  0.100E+04
 AT CELL (I,J,K) = (   3,  58,  27)
>>>>>>> Stashed changes

 
 SOLVING FOR HEAD 
 FLOW MODEL IS TRANSIENT
 FLOW MODEL CONTAINS CONSTANT-HEAD CELLS


 MAXIMUM STEPSIZE DURING WHICH ANY PARTICLE CANNOT MOVE MORE THAN ONE CELL
<<<<<<< Updated upstream
 = 0.1635    (WHEN MIN. R.F.=1)  AT K=   3, I=   2, J=  29

 MAXIMUM STEPSIZE WHICH MEETS STABILITY CRITERION OF THE ADVECTION TERM
 (FOR PURE FINITE-DIFFERENCE OPTION, MIXELM=0) 
 = 0.1134    (WHEN MIN. R.F.=1)  AT K=   3, I=   2, J=  28
=======
 = 0.1872    (WHEN MIN. R.F.=1)  AT K=   3, I=   2, J=  31

 MAXIMUM STEPSIZE WHICH MEETS STABILITY CRITERION OF THE ADVECTION TERM
 (FOR PURE FINITE-DIFFERENCE OPTION, MIXELM=0) 
 = 0.1250    (WHEN MIN. R.F.=1)  AT K=   3, I=   2, J=  30
>>>>>>> Stashed changes


 TOTAL NUMBER OF POINT SOURCES/SINKS PRESENT IN THE FLOW MODEL =   240

 MAXIMUM STEPSIZE WHICH MEETS STABILITY CRITERION OF THE SINK & SOURCE TERM
 = 0.1000E+31(WHEN MIN. R.F.=1)  AT K=   0, I=   0, J=   0

 MAXIMUM STEPSIZE WHICH MEETS STABILITY CRITERION OF THE DISPERSION TERM
<<<<<<< Updated upstream
 = 0.6207E-02(WHEN MIN. R.F.=1)  AT K=   3, I=   2, J=  31


     1 CALLS TO GCG PACKAGE FOR TRANSPORT TIME STEP   1 IN FLOW TIME STEP  22 STRESS PERIOD   2
    18 TOTAL ITERATIONS

 NO OUTPUT CONTROL FOR STRESS PERIOD    2   TIME STEP  22
0WARNING: NUMERICAL OSCILLATION ENCOUNTERED
 ONE OR MORE CELL CONCENTRATIONS LESS THAN CRHOREF
 SMALLEST DENSITY =  0.100E+04
 AT CELL (I,J,K) = (   2,  39,  29)
=======
 = 0.6710E-02(WHEN MIN. R.F.=1)  AT K=   3, I=   2, J=  30
     1 CALLS TO GCG PACKAGE FOR TRANSPORT TIME STEP   3 IN FLOW TIME STEP  24 STRESS PERIOD   2
    18 TOTAL ITERATIONS
0WARNING: NUMERICAL OSCILLATION ENCOUNTERED
 ONE OR MORE CELL CONCENTRATIONS LESS THAN CRHOREF
 SMALLEST DENSITY =  0.100E+04
 AT CELL (I,J,K) = (   3,  58,  27)
>>>>>>> Stashed changes

 
 SOLVING FOR HEAD 
 FLOW MODEL IS TRANSIENT
 FLOW MODEL CONTAINS CONSTANT-HEAD CELLS


 MAXIMUM STEPSIZE DURING WHICH ANY PARTICLE CANNOT MOVE MORE THAN ONE CELL
<<<<<<< Updated upstream
 = 0.1635    (WHEN MIN. R.F.=1)  AT K=   3, I=   2, J=  29

 MAXIMUM STEPSIZE WHICH MEETS STABILITY CRITERION OF THE ADVECTION TERM
 (FOR PURE FINITE-DIFFERENCE OPTION, MIXELM=0) 
 = 0.1134    (WHEN MIN. R.F.=1)  AT K=   3, I=   2, J=  28
=======
 = 0.1872    (WHEN MIN. R.F.=1)  AT K=   3, I=   2, J=  31

 MAXIMUM STEPSIZE WHICH MEETS STABILITY CRITERION OF THE ADVECTION TERM
 (FOR PURE FINITE-DIFFERENCE OPTION, MIXELM=0) 
 = 0.1250    (WHEN MIN. R.F.=1)  AT K=   3, I=   2, J=  30
>>>>>>> Stashed changes


 TOTAL NUMBER OF POINT SOURCES/SINKS PRESENT IN THE FLOW MODEL =   240

 MAXIMUM STEPSIZE WHICH MEETS STABILITY CRITERION OF THE SINK & SOURCE TERM
 = 0.1000E+31(WHEN MIN. R.F.=1)  AT K=   0, I=   0, J=   0

 MAXIMUM STEPSIZE WHICH MEETS STABILITY CRITERION OF THE DISPERSION TERM
<<<<<<< Updated upstream
 = 0.6207E-02(WHEN MIN. R.F.=1)  AT K=   3, I=   2, J=  31
     1 CALLS TO GCG PACKAGE FOR TRANSPORT TIME STEP   2 IN FLOW TIME STEP  22 STRESS PERIOD   2
=======
 = 0.6710E-02(WHEN MIN. R.F.=1)  AT K=   3, I=   2, J=  30
     1 CALLS TO GCG PACKAGE FOR TRANSPORT TIME STEP   4 IN FLOW TIME STEP  24 STRESS PERIOD   2
>>>>>>> Stashed changes
    18 TOTAL ITERATIONS
0WARNING: NUMERICAL OSCILLATION ENCOUNTERED
 ONE OR MORE CELL CONCENTRATIONS LESS THAN CRHOREF
 SMALLEST DENSITY =  0.100E+04
<<<<<<< Updated upstream
 AT CELL (I,J,K) = (   2,  39,  29)
=======
 AT CELL (I,J,K) = (   3,  58,  27)
>>>>>>> Stashed changes

 
 SOLVING FOR HEAD 
 FLOW MODEL IS TRANSIENT
 FLOW MODEL CONTAINS CONSTANT-HEAD CELLS


 MAXIMUM STEPSIZE DURING WHICH ANY PARTICLE CANNOT MOVE MORE THAN ONE CELL
<<<<<<< Updated upstream
 = 0.1635    (WHEN MIN. R.F.=1)  AT K=   3, I=   2, J=  29

 MAXIMUM STEPSIZE WHICH MEETS STABILITY CRITERION OF THE ADVECTION TERM
 (FOR PURE FINITE-DIFFERENCE OPTION, MIXELM=0) 
 = 0.1134    (WHEN MIN. R.F.=1)  AT K=   3, I=   2, J=  28
=======
 = 0.1872    (WHEN MIN. R.F.=1)  AT K=   3, I=   2, J=  31

 MAXIMUM STEPSIZE WHICH MEETS STABILITY CRITERION OF THE ADVECTION TERM
 (FOR PURE FINITE-DIFFERENCE OPTION, MIXELM=0) 
 = 0.1250    (WHEN MIN. R.F.=1)  AT K=   3, I=   2, J=  30
>>>>>>> Stashed changes


 TOTAL NUMBER OF POINT SOURCES/SINKS PRESENT IN THE FLOW MODEL =   240

 MAXIMUM STEPSIZE WHICH MEETS STABILITY CRITERION OF THE SINK & SOURCE TERM
 = 0.1000E+31(WHEN MIN. R.F.=1)  AT K=   0, I=   0, J=   0

 MAXIMUM STEPSIZE WHICH MEETS STABILITY CRITERION OF THE DISPERSION TERM
<<<<<<< Updated upstream
 = 0.6207E-02(WHEN MIN. R.F.=1)  AT K=   3, I=   2, J=  31
     1 CALLS TO GCG PACKAGE FOR TRANSPORT TIME STEP   3 IN FLOW TIME STEP  22 STRESS PERIOD   2
=======
 = 0.6710E-02(WHEN MIN. R.F.=1)  AT K=   3, I=   2, J=  30
     1 CALLS TO GCG PACKAGE FOR TRANSPORT TIME STEP   5 IN FLOW TIME STEP  24 STRESS PERIOD   2
>>>>>>> Stashed changes
    18 TOTAL ITERATIONS
0WARNING: NUMERICAL OSCILLATION ENCOUNTERED
 ONE OR MORE CELL CONCENTRATIONS LESS THAN CRHOREF
 SMALLEST DENSITY =  0.100E+04
<<<<<<< Updated upstream
 AT CELL (I,J,K) = (   2,  39,  29)
=======
 AT CELL (I,J,K) = (   3,  58,  27)
>>>>>>> Stashed changes

 
 SOLVING FOR HEAD 
 FLOW MODEL IS TRANSIENT
 FLOW MODEL CONTAINS CONSTANT-HEAD CELLS


 MAXIMUM STEPSIZE DURING WHICH ANY PARTICLE CANNOT MOVE MORE THAN ONE CELL
<<<<<<< Updated upstream
 = 0.1635    (WHEN MIN. R.F.=1)  AT K=   3, I=   2, J=  29

 MAXIMUM STEPSIZE WHICH MEETS STABILITY CRITERION OF THE ADVECTION TERM
 (FOR PURE FINITE-DIFFERENCE OPTION, MIXELM=0) 
 = 0.1134    (WHEN MIN. R.F.=1)  AT K=   3, I=   2, J=  28
=======
 = 0.1872    (WHEN MIN. R.F.=1)  AT K=   3, I=   2, J=  31

 MAXIMUM STEPSIZE WHICH MEETS STABILITY CRITERION OF THE ADVECTION TERM
 (FOR PURE FINITE-DIFFERENCE OPTION, MIXELM=0) 
 = 0.1250    (WHEN MIN. R.F.=1)  AT K=   3, I=   2, J=  30
>>>>>>> Stashed changes


 TOTAL NUMBER OF POINT SOURCES/SINKS PRESENT IN THE FLOW MODEL =   240

 MAXIMUM STEPSIZE WHICH MEETS STABILITY CRITERION OF THE SINK & SOURCE TERM
 = 0.1000E+31(WHEN MIN. R.F.=1)  AT K=   0, I=   0, J=   0

 MAXIMUM STEPSIZE WHICH MEETS STABILITY CRITERION OF THE DISPERSION TERM
<<<<<<< Updated upstream
 = 0.6207E-02(WHEN MIN. R.F.=1)  AT K=   3, I=   2, J=  31
     1 CALLS TO GCG PACKAGE FOR TRANSPORT TIME STEP   4 IN FLOW TIME STEP  22 STRESS PERIOD   2
    17 TOTAL ITERATIONS
0WARNING: NUMERICAL OSCILLATION ENCOUNTERED
 ONE OR MORE CELL CONCENTRATIONS LESS THAN CRHOREF
 SMALLEST DENSITY =  0.100E+04
 AT CELL (I,J,K) = (   2,  39,  29)
=======
 = 0.6710E-02(WHEN MIN. R.F.=1)  AT K=   3, I=   2, J=  30
     1 CALLS TO GCG PACKAGE FOR TRANSPORT TIME STEP   6 IN FLOW TIME STEP  24 STRESS PERIOD   2
    18 TOTAL ITERATIONS
0WARNING: NUMERICAL OSCILLATION ENCOUNTERED
 ONE OR MORE CELL CONCENTRATIONS LESS THAN CRHOREF
 SMALLEST DENSITY =  0.100E+04
 AT CELL (I,J,K) = (   3,  58,  27)
>>>>>>> Stashed changes

 
 SOLVING FOR HEAD 
 FLOW MODEL IS TRANSIENT
 FLOW MODEL CONTAINS CONSTANT-HEAD CELLS


 MAXIMUM STEPSIZE DURING WHICH ANY PARTICLE CANNOT MOVE MORE THAN ONE CELL
<<<<<<< Updated upstream
 = 0.1635    (WHEN MIN. R.F.=1)  AT K=   3, I=   2, J=  29

 MAXIMUM STEPSIZE WHICH MEETS STABILITY CRITERION OF THE ADVECTION TERM
 (FOR PURE FINITE-DIFFERENCE OPTION, MIXELM=0) 
 = 0.1134    (WHEN MIN. R.F.=1)  AT K=   3, I=   2, J=  28
=======
 = 0.1872    (WHEN MIN. R.F.=1)  AT K=   3, I=   2, J=  31

 MAXIMUM STEPSIZE WHICH MEETS STABILITY CRITERION OF THE ADVECTION TERM
 (FOR PURE FINITE-DIFFERENCE OPTION, MIXELM=0) 
 = 0.1250    (WHEN MIN. R.F.=1)  AT K=   3, I=   2, J=  30
>>>>>>> Stashed changes


 TOTAL NUMBER OF POINT SOURCES/SINKS PRESENT IN THE FLOW MODEL =   240

 MAXIMUM STEPSIZE WHICH MEETS STABILITY CRITERION OF THE SINK & SOURCE TERM
 = 0.1000E+31(WHEN MIN. R.F.=1)  AT K=   0, I=   0, J=   0

 MAXIMUM STEPSIZE WHICH MEETS STABILITY CRITERION OF THE DISPERSION TERM
<<<<<<< Updated upstream
 = 0.6207E-02(WHEN MIN. R.F.=1)  AT K=   3, I=   2, J=  31
     1 CALLS TO GCG PACKAGE FOR TRANSPORT TIME STEP   5 IN FLOW TIME STEP  22 STRESS PERIOD   2
=======
 = 0.6709E-02(WHEN MIN. R.F.=1)  AT K=   3, I=   2, J=  30
     1 CALLS TO GCG PACKAGE FOR TRANSPORT TIME STEP   7 IN FLOW TIME STEP  24 STRESS PERIOD   2
>>>>>>> Stashed changes
    18 TOTAL ITERATIONS
0WARNING: NUMERICAL OSCILLATION ENCOUNTERED
 ONE OR MORE CELL CONCENTRATIONS LESS THAN CRHOREF
 SMALLEST DENSITY =  0.100E+04
<<<<<<< Updated upstream
 AT CELL (I,J,K) = (   2,  39,  29)
=======
 AT CELL (I,J,K) = (   3,  58,  27)
>>>>>>> Stashed changes

 
 SOLVING FOR HEAD 
 FLOW MODEL IS TRANSIENT
 FLOW MODEL CONTAINS CONSTANT-HEAD CELLS


 MAXIMUM STEPSIZE DURING WHICH ANY PARTICLE CANNOT MOVE MORE THAN ONE CELL
<<<<<<< Updated upstream
 = 0.1635    (WHEN MIN. R.F.=1)  AT K=   3, I=   2, J=  29

 MAXIMUM STEPSIZE WHICH MEETS STABILITY CRITERION OF THE ADVECTION TERM
 (FOR PURE FINITE-DIFFERENCE OPTION, MIXELM=0) 
 = 0.1134    (WHEN MIN. R.F.=1)  AT K=   3, I=   2, J=  28
=======
 = 0.1872    (WHEN MIN. R.F.=1)  AT K=   3, I=   2, J=  31

 MAXIMUM STEPSIZE WHICH MEETS STABILITY CRITERION OF THE ADVECTION TERM
 (FOR PURE FINITE-DIFFERENCE OPTION, MIXELM=0) 
 = 0.1250    (WHEN MIN. R.F.=1)  AT K=   3, I=   2, J=  30
>>>>>>> Stashed changes


 TOTAL NUMBER OF POINT SOURCES/SINKS PRESENT IN THE FLOW MODEL =   240

 MAXIMUM STEPSIZE WHICH MEETS STABILITY CRITERION OF THE SINK & SOURCE TERM
 = 0.1000E+31(WHEN MIN. R.F.=1)  AT K=   0, I=   0, J=   0

 MAXIMUM STEPSIZE WHICH MEETS STABILITY CRITERION OF THE DISPERSION TERM
<<<<<<< Updated upstream
 = 0.6207E-02(WHEN MIN. R.F.=1)  AT K=   3, I=   2, J=  31
     1 CALLS TO GCG PACKAGE FOR TRANSPORT TIME STEP   6 IN FLOW TIME STEP  22 STRESS PERIOD   2
    17 TOTAL ITERATIONS
0WARNING: NUMERICAL OSCILLATION ENCOUNTERED
 ONE OR MORE CELL CONCENTRATIONS LESS THAN CRHOREF
 SMALLEST DENSITY =  0.100E+04
 AT CELL (I,J,K) = (   2,  39,  29)
=======
 = 0.6709E-02(WHEN MIN. R.F.=1)  AT K=   3, I=   2, J=  30
     1 CALLS TO GCG PACKAGE FOR TRANSPORT TIME STEP   8 IN FLOW TIME STEP  24 STRESS PERIOD   2
     7 TOTAL ITERATIONS
  MAXIMUM CONCENTRATION CHANGES FOR EACH ITERATION:
  MAX. CHANGE LAYER,ROW,COL MAX. CHANGE LAYER,ROW,COL MAX. CHANGE LAYER,ROW,COL MAX. CHANGE LAYER,ROW,COL MAX. CHANGE LAYER,ROW,COL
 ------------------------------------------------------------------------------------------------------------------------------------
   0.3101E-03 ( 13,  2, 53)  0.2463E-04 (  6,  1, 52)  0.6273E-05 (  4,  2, 44)  0.2284E-05 (  3,  2, 37)  0.5590E-06 (  4,  1, 31)
   0.2095E-06 (  3,  1, 31)  0.5102E-07 (  4,  3, 27)
 UBDSV1 SAVING "         STORAGE" ON UNIT  53 AT TIME STEP 24, STRESS PERIOD   2
 UBDSV2 SAVING "   CONSTANT HEAD" ON UNIT  53 AT TIME STEP 24, STRESS PERIOD   2
 UBDSV1 SAVING "FLOW RIGHT FACE " ON UNIT  53 AT TIME STEP 24, STRESS PERIOD   2
 UBDSV1 SAVING "FLOW FRONT FACE " ON UNIT  53 AT TIME STEP 24, STRESS PERIOD   2
 UBDSV1 SAVING "FLOW LOWER FACE " ON UNIT  53 AT TIME STEP 24, STRESS PERIOD   2
 UBDSV1 SAVING "            DCDT" ON UNIT  53 AT TIME STEP 24, STRESS PERIOD   2
0WARNING: NUMERICAL OSCILLATION ENCOUNTERED
 ONE OR MORE CELL CONCENTRATIONS LESS THAN CRHOREF
 SMALLEST DENSITY =  0.100E+04
 AT CELL (I,J,K) = (   3,  58,  27)


 HEAD WILL BE SAVED ON UNIT   51 AT END OF TIME STEP  24, STRESS PERIOD    2


                                          ================================================
                                                         FROM TIME =   25.000     TO    26.000    
>>>>>>> Stashed changes

 
 SOLVING FOR HEAD 
 FLOW MODEL IS TRANSIENT
 FLOW MODEL CONTAINS CONSTANT-HEAD CELLS


 MAXIMUM STEPSIZE DURING WHICH ANY PARTICLE CANNOT MOVE MORE THAN ONE CELL
<<<<<<< Updated upstream
 = 0.1635    (WHEN MIN. R.F.=1)  AT K=   3, I=   2, J=  29

 MAXIMUM STEPSIZE WHICH MEETS STABILITY CRITERION OF THE ADVECTION TERM
 (FOR PURE FINITE-DIFFERENCE OPTION, MIXELM=0) 
 = 0.1134    (WHEN MIN. R.F.=1)  AT K=   3, I=   2, J=  28
=======
 = 0.1872    (WHEN MIN. R.F.=1)  AT K=   3, I=   2, J=  31

 MAXIMUM STEPSIZE WHICH MEETS STABILITY CRITERION OF THE ADVECTION TERM
 (FOR PURE FINITE-DIFFERENCE OPTION, MIXELM=0) 
 = 0.1250    (WHEN MIN. R.F.=1)  AT K=   3, I=   2, J=  30
>>>>>>> Stashed changes


 TOTAL NUMBER OF POINT SOURCES/SINKS PRESENT IN THE FLOW MODEL =   240

 MAXIMUM STEPSIZE WHICH MEETS STABILITY CRITERION OF THE SINK & SOURCE TERM
 = 0.1000E+31(WHEN MIN. R.F.=1)  AT K=   0, I=   0, J=   0

 MAXIMUM STEPSIZE WHICH MEETS STABILITY CRITERION OF THE DISPERSION TERM
<<<<<<< Updated upstream
 = 0.6207E-02(WHEN MIN. R.F.=1)  AT K=   3, I=   2, J=  31
     1 CALLS TO GCG PACKAGE FOR TRANSPORT TIME STEP   7 IN FLOW TIME STEP  22 STRESS PERIOD   2
    18 TOTAL ITERATIONS
0WARNING: NUMERICAL OSCILLATION ENCOUNTERED
 ONE OR MORE CELL CONCENTRATIONS LESS THAN CRHOREF
 SMALLEST DENSITY =  0.100E+04
 AT CELL (I,J,K) = (   2,  39,  29)
=======
 = 0.6709E-02(WHEN MIN. R.F.=1)  AT K=   3, I=   2, J=  30


     1 CALLS TO GCG PACKAGE FOR TRANSPORT TIME STEP   1 IN FLOW TIME STEP  25 STRESS PERIOD   2
    18 TOTAL ITERATIONS

 OUTPUT CONTROL FOR STRESS PERIOD    2   TIME STEP  25
    SAVE HEAD FOR ALL LAYERS
    SAVE BUDGET
0WARNING: NUMERICAL OSCILLATION ENCOUNTERED
 ONE OR MORE CELL CONCENTRATIONS LESS THAN CRHOREF
 SMALLEST DENSITY =  0.100E+04
 AT CELL (I,J,K) = (   3,  58,  27)
>>>>>>> Stashed changes

 
 SOLVING FOR HEAD 
 FLOW MODEL IS TRANSIENT
 FLOW MODEL CONTAINS CONSTANT-HEAD CELLS


 MAXIMUM STEPSIZE DURING WHICH ANY PARTICLE CANNOT MOVE MORE THAN ONE CELL
<<<<<<< Updated upstream
 = 0.1635    (WHEN MIN. R.F.=1)  AT K=   3, I=   2, J=  29

 MAXIMUM STEPSIZE WHICH MEETS STABILITY CRITERION OF THE ADVECTION TERM
 (FOR PURE FINITE-DIFFERENCE OPTION, MIXELM=0) 
 = 0.1134    (WHEN MIN. R.F.=1)  AT K=   3, I=   2, J=  28
=======
 = 0.1872    (WHEN MIN. R.F.=1)  AT K=   3, I=   2, J=  31

 MAXIMUM STEPSIZE WHICH MEETS STABILITY CRITERION OF THE ADVECTION TERM
 (FOR PURE FINITE-DIFFERENCE OPTION, MIXELM=0) 
 = 0.1250    (WHEN MIN. R.F.=1)  AT K=   3, I=   2, J=  30
>>>>>>> Stashed changes


 TOTAL NUMBER OF POINT SOURCES/SINKS PRESENT IN THE FLOW MODEL =   240

 MAXIMUM STEPSIZE WHICH MEETS STABILITY CRITERION OF THE SINK & SOURCE TERM
 = 0.1000E+31(WHEN MIN. R.F.=1)  AT K=   0, I=   0, J=   0

 MAXIMUM STEPSIZE WHICH MEETS STABILITY CRITERION OF THE DISPERSION TERM
<<<<<<< Updated upstream
 = 0.6207E-02(WHEN MIN. R.F.=1)  AT K=   3, I=   2, J=  31
     1 CALLS TO GCG PACKAGE FOR TRANSPORT TIME STEP   8 IN FLOW TIME STEP  22 STRESS PERIOD   2
    17 TOTAL ITERATIONS
0WARNING: NUMERICAL OSCILLATION ENCOUNTERED
 ONE OR MORE CELL CONCENTRATIONS LESS THAN CRHOREF
 SMALLEST DENSITY =  0.100E+04
 AT CELL (I,J,K) = (   2,  39,  29)
=======
 = 0.6709E-02(WHEN MIN. R.F.=1)  AT K=   3, I=   2, J=  30
     1 CALLS TO GCG PACKAGE FOR TRANSPORT TIME STEP   2 IN FLOW TIME STEP  25 STRESS PERIOD   2
    18 TOTAL ITERATIONS
0WARNING: NUMERICAL OSCILLATION ENCOUNTERED
 ONE OR MORE CELL CONCENTRATIONS LESS THAN CRHOREF
 SMALLEST DENSITY =  0.100E+04
 AT CELL (I,J,K) = (   3,  59,  27)
>>>>>>> Stashed changes

 
 SOLVING FOR HEAD 
 FLOW MODEL IS TRANSIENT
 FLOW MODEL CONTAINS CONSTANT-HEAD CELLS


 MAXIMUM STEPSIZE DURING WHICH ANY PARTICLE CANNOT MOVE MORE THAN ONE CELL
<<<<<<< Updated upstream
 = 0.1635    (WHEN MIN. R.F.=1)  AT K=   3, I=   2, J=  29

 MAXIMUM STEPSIZE WHICH MEETS STABILITY CRITERION OF THE ADVECTION TERM
 (FOR PURE FINITE-DIFFERENCE OPTION, MIXELM=0) 
 = 0.1134    (WHEN MIN. R.F.=1)  AT K=   3, I=   2, J=  28
=======
 = 0.1872    (WHEN MIN. R.F.=1)  AT K=   3, I=   2, J=  31

 MAXIMUM STEPSIZE WHICH MEETS STABILITY CRITERION OF THE ADVECTION TERM
 (FOR PURE FINITE-DIFFERENCE OPTION, MIXELM=0) 
 = 0.1250    (WHEN MIN. R.F.=1)  AT K=   3, I=   2, J=  30
>>>>>>> Stashed changes


 TOTAL NUMBER OF POINT SOURCES/SINKS PRESENT IN THE FLOW MODEL =   240

 MAXIMUM STEPSIZE WHICH MEETS STABILITY CRITERION OF THE SINK & SOURCE TERM
 = 0.1000E+31(WHEN MIN. R.F.=1)  AT K=   0, I=   0, J=   0

 MAXIMUM STEPSIZE WHICH MEETS STABILITY CRITERION OF THE DISPERSION TERM
<<<<<<< Updated upstream
 = 0.6207E-02(WHEN MIN. R.F.=1)  AT K=   3, I=   2, J=  31
     1 CALLS TO GCG PACKAGE FOR TRANSPORT TIME STEP   9 IN FLOW TIME STEP  22 STRESS PERIOD   2
     8 TOTAL ITERATIONS
  MAXIMUM CONCENTRATION CHANGES FOR EACH ITERATION:
  MAX. CHANGE LAYER,ROW,COL MAX. CHANGE LAYER,ROW,COL MAX. CHANGE LAYER,ROW,COL MAX. CHANGE LAYER,ROW,COL MAX. CHANGE LAYER,ROW,COL
 ------------------------------------------------------------------------------------------------------------------------------------
   0.3880E-03 ( 12,  3, 55)  0.4013E-04 (  6,  1, 56)  0.7461E-05 (  4,  2, 46)  0.3012E-05 (  3,  3, 31)  0.1245E-05 (  3,  3, 30)
   0.5584E-06 (  3,  3, 31)  0.1583E-06 (  3,  3, 30)  0.5023E-07 (  3,  3, 29)
0WARNING: NUMERICAL OSCILLATION ENCOUNTERED
 ONE OR MORE CELL CONCENTRATIONS LESS THAN CRHOREF
 SMALLEST DENSITY =  0.100E+04
 AT CELL (I,J,K) = (   2,  39,  29)



                                          ================================================
                                                         FROM TIME =   23.000     TO    24.000    
=======
 = 0.6709E-02(WHEN MIN. R.F.=1)  AT K=   3, I=   2, J=  30
     1 CALLS TO GCG PACKAGE FOR TRANSPORT TIME STEP   3 IN FLOW TIME STEP  25 STRESS PERIOD   2
    18 TOTAL ITERATIONS
0WARNING: NUMERICAL OSCILLATION ENCOUNTERED
 ONE OR MORE CELL CONCENTRATIONS LESS THAN CRHOREF
 SMALLEST DENSITY =  0.100E+04
 AT CELL (I,J,K) = (   3,  59,  27)
>>>>>>> Stashed changes

 
 SOLVING FOR HEAD 
 FLOW MODEL IS TRANSIENT
 FLOW MODEL CONTAINS CONSTANT-HEAD CELLS


 MAXIMUM STEPSIZE DURING WHICH ANY PARTICLE CANNOT MOVE MORE THAN ONE CELL
<<<<<<< Updated upstream
 = 0.1635    (WHEN MIN. R.F.=1)  AT K=   3, I=   2, J=  29

 MAXIMUM STEPSIZE WHICH MEETS STABILITY CRITERION OF THE ADVECTION TERM
 (FOR PURE FINITE-DIFFERENCE OPTION, MIXELM=0) 
 = 0.1134    (WHEN MIN. R.F.=1)  AT K=   3, I=   2, J=  28
=======
 = 0.1872    (WHEN MIN. R.F.=1)  AT K=   3, I=   2, J=  31

 MAXIMUM STEPSIZE WHICH MEETS STABILITY CRITERION OF THE ADVECTION TERM
 (FOR PURE FINITE-DIFFERENCE OPTION, MIXELM=0) 
 = 0.1250    (WHEN MIN. R.F.=1)  AT K=   3, I=   2, J=  30
>>>>>>> Stashed changes


 TOTAL NUMBER OF POINT SOURCES/SINKS PRESENT IN THE FLOW MODEL =   240

 MAXIMUM STEPSIZE WHICH MEETS STABILITY CRITERION OF THE SINK & SOURCE TERM
 = 0.1000E+31(WHEN MIN. R.F.=1)  AT K=   0, I=   0, J=   0

 MAXIMUM STEPSIZE WHICH MEETS STABILITY CRITERION OF THE DISPERSION TERM
<<<<<<< Updated upstream
 = 0.6207E-02(WHEN MIN. R.F.=1)  AT K=   3, I=   2, J=  31


     1 CALLS TO GCG PACKAGE FOR TRANSPORT TIME STEP   1 IN FLOW TIME STEP  23 STRESS PERIOD   2
    17 TOTAL ITERATIONS

 NO OUTPUT CONTROL FOR STRESS PERIOD    2   TIME STEP  23
0WARNING: NUMERICAL OSCILLATION ENCOUNTERED
 ONE OR MORE CELL CONCENTRATIONS LESS THAN CRHOREF
 SMALLEST DENSITY =  0.100E+04
 AT CELL (I,J,K) = (   2,  39,  29)
=======
 = 0.6709E-02(WHEN MIN. R.F.=1)  AT K=   3, I=   2, J=  30
     1 CALLS TO GCG PACKAGE FOR TRANSPORT TIME STEP   4 IN FLOW TIME STEP  25 STRESS PERIOD   2
    18 TOTAL ITERATIONS
0WARNING: NUMERICAL OSCILLATION ENCOUNTERED
 ONE OR MORE CELL CONCENTRATIONS LESS THAN CRHOREF
 SMALLEST DENSITY =  0.100E+04
 AT CELL (I,J,K) = (   3,  59,  27)
>>>>>>> Stashed changes

 
 SOLVING FOR HEAD 
 FLOW MODEL IS TRANSIENT
 FLOW MODEL CONTAINS CONSTANT-HEAD CELLS


 MAXIMUM STEPSIZE DURING WHICH ANY PARTICLE CANNOT MOVE MORE THAN ONE CELL
<<<<<<< Updated upstream
 = 0.1635    (WHEN MIN. R.F.=1)  AT K=   3, I=   2, J=  29

 MAXIMUM STEPSIZE WHICH MEETS STABILITY CRITERION OF THE ADVECTION TERM
 (FOR PURE FINITE-DIFFERENCE OPTION, MIXELM=0) 
 = 0.1134    (WHEN MIN. R.F.=1)  AT K=   3, I=   2, J=  28
=======
 = 0.1872    (WHEN MIN. R.F.=1)  AT K=   3, I=   2, J=  31

 MAXIMUM STEPSIZE WHICH MEETS STABILITY CRITERION OF THE ADVECTION TERM
 (FOR PURE FINITE-DIFFERENCE OPTION, MIXELM=0) 
 = 0.1250    (WHEN MIN. R.F.=1)  AT K=   3, I=   2, J=  30
>>>>>>> Stashed changes


 TOTAL NUMBER OF POINT SOURCES/SINKS PRESENT IN THE FLOW MODEL =   240

 MAXIMUM STEPSIZE WHICH MEETS STABILITY CRITERION OF THE SINK & SOURCE TERM
 = 0.1000E+31(WHEN MIN. R.F.=1)  AT K=   0, I=   0, J=   0

 MAXIMUM STEPSIZE WHICH MEETS STABILITY CRITERION OF THE DISPERSION TERM
<<<<<<< Updated upstream
 = 0.6207E-02(WHEN MIN. R.F.=1)  AT K=   3, I=   2, J=  31
     1 CALLS TO GCG PACKAGE FOR TRANSPORT TIME STEP   2 IN FLOW TIME STEP  23 STRESS PERIOD   2
=======
 = 0.6709E-02(WHEN MIN. R.F.=1)  AT K=   3, I=   2, J=  30
     1 CALLS TO GCG PACKAGE FOR TRANSPORT TIME STEP   5 IN FLOW TIME STEP  25 STRESS PERIOD   2
>>>>>>> Stashed changes
    18 TOTAL ITERATIONS
0WARNING: NUMERICAL OSCILLATION ENCOUNTERED
 ONE OR MORE CELL CONCENTRATIONS LESS THAN CRHOREF
 SMALLEST DENSITY =  0.100E+04
<<<<<<< Updated upstream
 AT CELL (I,J,K) = (   2,  39,  29)
=======
 AT CELL (I,J,K) = (   3,  59,  27)
>>>>>>> Stashed changes

 
 SOLVING FOR HEAD 
 FLOW MODEL IS TRANSIENT
 FLOW MODEL CONTAINS CONSTANT-HEAD CELLS


 MAXIMUM STEPSIZE DURING WHICH ANY PARTICLE CANNOT MOVE MORE THAN ONE CELL
<<<<<<< Updated upstream
 = 0.1635    (WHEN MIN. R.F.=1)  AT K=   3, I=   2, J=  29

 MAXIMUM STEPSIZE WHICH MEETS STABILITY CRITERION OF THE ADVECTION TERM
 (FOR PURE FINITE-DIFFERENCE OPTION, MIXELM=0) 
 = 0.1134    (WHEN MIN. R.F.=1)  AT K=   3, I=   2, J=  28
=======
 = 0.1872    (WHEN MIN. R.F.=1)  AT K=   3, I=   2, J=  31

 MAXIMUM STEPSIZE WHICH MEETS STABILITY CRITERION OF THE ADVECTION TERM
 (FOR PURE FINITE-DIFFERENCE OPTION, MIXELM=0) 
 = 0.1250    (WHEN MIN. R.F.=1)  AT K=   3, I=   2, J=  30
>>>>>>> Stashed changes


 TOTAL NUMBER OF POINT SOURCES/SINKS PRESENT IN THE FLOW MODEL =   240

 MAXIMUM STEPSIZE WHICH MEETS STABILITY CRITERION OF THE SINK & SOURCE TERM
 = 0.1000E+31(WHEN MIN. R.F.=1)  AT K=   0, I=   0, J=   0

 MAXIMUM STEPSIZE WHICH MEETS STABILITY CRITERION OF THE DISPERSION TERM
<<<<<<< Updated upstream
 = 0.6207E-02(WHEN MIN. R.F.=1)  AT K=   3, I=   2, J=  31
     1 CALLS TO GCG PACKAGE FOR TRANSPORT TIME STEP   3 IN FLOW TIME STEP  23 STRESS PERIOD   2
    17 TOTAL ITERATIONS
0WARNING: NUMERICAL OSCILLATION ENCOUNTERED
 ONE OR MORE CELL CONCENTRATIONS LESS THAN CRHOREF
 SMALLEST DENSITY =  0.100E+04
 AT CELL (I,J,K) = (   2,  39,  29)
=======
 = 0.6709E-02(WHEN MIN. R.F.=1)  AT K=   3, I=   2, J=  30
     1 CALLS TO GCG PACKAGE FOR TRANSPORT TIME STEP   6 IN FLOW TIME STEP  25 STRESS PERIOD   2
    18 TOTAL ITERATIONS
0WARNING: NUMERICAL OSCILLATION ENCOUNTERED
 ONE OR MORE CELL CONCENTRATIONS LESS THAN CRHOREF
 SMALLEST DENSITY =  0.100E+04
 AT CELL (I,J,K) = (   3,  59,  27)
>>>>>>> Stashed changes

 
 SOLVING FOR HEAD 
 FLOW MODEL IS TRANSIENT
 FLOW MODEL CONTAINS CONSTANT-HEAD CELLS


 MAXIMUM STEPSIZE DURING WHICH ANY PARTICLE CANNOT MOVE MORE THAN ONE CELL
<<<<<<< Updated upstream
 = 0.1635    (WHEN MIN. R.F.=1)  AT K=   3, I=   2, J=  29

 MAXIMUM STEPSIZE WHICH MEETS STABILITY CRITERION OF THE ADVECTION TERM
 (FOR PURE FINITE-DIFFERENCE OPTION, MIXELM=0) 
 = 0.1134    (WHEN MIN. R.F.=1)  AT K=   3, I=   2, J=  28
=======
 = 0.1872    (WHEN MIN. R.F.=1)  AT K=   3, I=   2, J=  31

 MAXIMUM STEPSIZE WHICH MEETS STABILITY CRITERION OF THE ADVECTION TERM
 (FOR PURE FINITE-DIFFERENCE OPTION, MIXELM=0) 
 = 0.1250    (WHEN MIN. R.F.=1)  AT K=   3, I=   2, J=  30
>>>>>>> Stashed changes


 TOTAL NUMBER OF POINT SOURCES/SINKS PRESENT IN THE FLOW MODEL =   240

 MAXIMUM STEPSIZE WHICH MEETS STABILITY CRITERION OF THE SINK & SOURCE TERM
 = 0.1000E+31(WHEN MIN. R.F.=1)  AT K=   0, I=   0, J=   0

 MAXIMUM STEPSIZE WHICH MEETS STABILITY CRITERION OF THE DISPERSION TERM
<<<<<<< Updated upstream
 = 0.6206E-02(WHEN MIN. R.F.=1)  AT K=   3, I=   2, J=  31
     1 CALLS TO GCG PACKAGE FOR TRANSPORT TIME STEP   4 IN FLOW TIME STEP  23 STRESS PERIOD   2
    17 TOTAL ITERATIONS
0WARNING: NUMERICAL OSCILLATION ENCOUNTERED
 ONE OR MORE CELL CONCENTRATIONS LESS THAN CRHOREF
 SMALLEST DENSITY =  0.100E+04
 AT CELL (I,J,K) = (   1,  44,  29)
=======
 = 0.6709E-02(WHEN MIN. R.F.=1)  AT K=   3, I=   2, J=  30
     1 CALLS TO GCG PACKAGE FOR TRANSPORT TIME STEP   7 IN FLOW TIME STEP  25 STRESS PERIOD   2
    18 TOTAL ITERATIONS
0WARNING: NUMERICAL OSCILLATION ENCOUNTERED
 ONE OR MORE CELL CONCENTRATIONS LESS THAN CRHOREF
 SMALLEST DENSITY =  0.100E+04
 AT CELL (I,J,K) = (   3,  59,  27)
>>>>>>> Stashed changes

 
 SOLVING FOR HEAD 
 FLOW MODEL IS TRANSIENT
 FLOW MODEL CONTAINS CONSTANT-HEAD CELLS


 MAXIMUM STEPSIZE DURING WHICH ANY PARTICLE CANNOT MOVE MORE THAN ONE CELL
<<<<<<< Updated upstream
 = 0.1635    (WHEN MIN. R.F.=1)  AT K=   3, I=   2, J=  29

 MAXIMUM STEPSIZE WHICH MEETS STABILITY CRITERION OF THE ADVECTION TERM
 (FOR PURE FINITE-DIFFERENCE OPTION, MIXELM=0) 
 = 0.1134    (WHEN MIN. R.F.=1)  AT K=   3, I=   2, J=  28
=======
 = 0.1872    (WHEN MIN. R.F.=1)  AT K=   3, I=   2, J=  31

 MAXIMUM STEPSIZE WHICH MEETS STABILITY CRITERION OF THE ADVECTION TERM
 (FOR PURE FINITE-DIFFERENCE OPTION, MIXELM=0) 
 = 0.1250    (WHEN MIN. R.F.=1)  AT K=   3, I=   2, J=  30
>>>>>>> Stashed changes


 TOTAL NUMBER OF POINT SOURCES/SINKS PRESENT IN THE FLOW MODEL =   240

 MAXIMUM STEPSIZE WHICH MEETS STABILITY CRITERION OF THE SINK & SOURCE TERM
 = 0.1000E+31(WHEN MIN. R.F.=1)  AT K=   0, I=   0, J=   0

 MAXIMUM STEPSIZE WHICH MEETS STABILITY CRITERION OF THE DISPERSION TERM
<<<<<<< Updated upstream
 = 0.6206E-02(WHEN MIN. R.F.=1)  AT K=   3, I=   2, J=  31
     1 CALLS TO GCG PACKAGE FOR TRANSPORT TIME STEP   5 IN FLOW TIME STEP  23 STRESS PERIOD   2
    17 TOTAL ITERATIONS
0WARNING: NUMERICAL OSCILLATION ENCOUNTERED
 ONE OR MORE CELL CONCENTRATIONS LESS THAN CRHOREF
 SMALLEST DENSITY =  0.100E+04
 AT CELL (I,J,K) = (   1,  44,  29)
=======
 = 0.6709E-02(WHEN MIN. R.F.=1)  AT K=   3, I=   2, J=  30
     1 CALLS TO GCG PACKAGE FOR TRANSPORT TIME STEP   8 IN FLOW TIME STEP  25 STRESS PERIOD   2
     7 TOTAL ITERATIONS
  MAXIMUM CONCENTRATION CHANGES FOR EACH ITERATION:
  MAX. CHANGE LAYER,ROW,COL MAX. CHANGE LAYER,ROW,COL MAX. CHANGE LAYER,ROW,COL MAX. CHANGE LAYER,ROW,COL MAX. CHANGE LAYER,ROW,COL
 ------------------------------------------------------------------------------------------------------------------------------------
   0.2993E-03 ( 13,  2, 53)  0.2300E-04 (  6,  1, 52)  0.5814E-05 (  4,  2, 44)  0.2118E-05 (  3,  2, 37)  0.5208E-06 (  4,  1, 31)
   0.1957E-06 (  3,  1, 31)  0.4790E-07 (  4,  3, 27)
 UBDSV1 SAVING "         STORAGE" ON UNIT  53 AT TIME STEP 25, STRESS PERIOD   2
 UBDSV2 SAVING "   CONSTANT HEAD" ON UNIT  53 AT TIME STEP 25, STRESS PERIOD   2
 UBDSV1 SAVING "FLOW RIGHT FACE " ON UNIT  53 AT TIME STEP 25, STRESS PERIOD   2
 UBDSV1 SAVING "FLOW FRONT FACE " ON UNIT  53 AT TIME STEP 25, STRESS PERIOD   2
 UBDSV1 SAVING "FLOW LOWER FACE " ON UNIT  53 AT TIME STEP 25, STRESS PERIOD   2
 UBDSV1 SAVING "            DCDT" ON UNIT  53 AT TIME STEP 25, STRESS PERIOD   2
0WARNING: NUMERICAL OSCILLATION ENCOUNTERED
 ONE OR MORE CELL CONCENTRATIONS LESS THAN CRHOREF
 SMALLEST DENSITY =  0.100E+04
 AT CELL (I,J,K) = (   3,  59,  27)


 HEAD WILL BE SAVED ON UNIT   51 AT END OF TIME STEP  25, STRESS PERIOD    2


                                          ================================================
                                                         FROM TIME =   26.000     TO    27.000    
>>>>>>> Stashed changes

 
 SOLVING FOR HEAD 
 FLOW MODEL IS TRANSIENT
 FLOW MODEL CONTAINS CONSTANT-HEAD CELLS


 MAXIMUM STEPSIZE DURING WHICH ANY PARTICLE CANNOT MOVE MORE THAN ONE CELL
<<<<<<< Updated upstream
 = 0.1635    (WHEN MIN. R.F.=1)  AT K=   3, I=   2, J=  29

 MAXIMUM STEPSIZE WHICH MEETS STABILITY CRITERION OF THE ADVECTION TERM
 (FOR PURE FINITE-DIFFERENCE OPTION, MIXELM=0) 
 = 0.1134    (WHEN MIN. R.F.=1)  AT K=   3, I=   2, J=  28
=======
 = 0.1872    (WHEN MIN. R.F.=1)  AT K=   3, I=   2, J=  31

 MAXIMUM STEPSIZE WHICH MEETS STABILITY CRITERION OF THE ADVECTION TERM
 (FOR PURE FINITE-DIFFERENCE OPTION, MIXELM=0) 
 = 0.1250    (WHEN MIN. R.F.=1)  AT K=   3, I=   2, J=  30
>>>>>>> Stashed changes


 TOTAL NUMBER OF POINT SOURCES/SINKS PRESENT IN THE FLOW MODEL =   240

 MAXIMUM STEPSIZE WHICH MEETS STABILITY CRITERION OF THE SINK & SOURCE TERM
 = 0.1000E+31(WHEN MIN. R.F.=1)  AT K=   0, I=   0, J=   0

 MAXIMUM STEPSIZE WHICH MEETS STABILITY CRITERION OF THE DISPERSION TERM
<<<<<<< Updated upstream
 = 0.6206E-02(WHEN MIN. R.F.=1)  AT K=   3, I=   2, J=  31
     1 CALLS TO GCG PACKAGE FOR TRANSPORT TIME STEP   6 IN FLOW TIME STEP  23 STRESS PERIOD   2
    17 TOTAL ITERATIONS
0WARNING: NUMERICAL OSCILLATION ENCOUNTERED
 ONE OR MORE CELL CONCENTRATIONS LESS THAN CRHOREF
 SMALLEST DENSITY =  0.100E+04
 AT CELL (I,J,K) = (   1,  44,  29)
=======
 = 0.6709E-02(WHEN MIN. R.F.=1)  AT K=   3, I=   2, J=  30


     1 CALLS TO GCG PACKAGE FOR TRANSPORT TIME STEP   1 IN FLOW TIME STEP  26 STRESS PERIOD   2
    18 TOTAL ITERATIONS

 OUTPUT CONTROL FOR STRESS PERIOD    2   TIME STEP  26
    SAVE HEAD FOR ALL LAYERS
    SAVE BUDGET
0WARNING: NUMERICAL OSCILLATION ENCOUNTERED
 ONE OR MORE CELL CONCENTRATIONS LESS THAN CRHOREF
 SMALLEST DENSITY =  0.100E+04
 AT CELL (I,J,K) = (   3,  59,  27)
>>>>>>> Stashed changes

 
 SOLVING FOR HEAD 
 FLOW MODEL IS TRANSIENT
 FLOW MODEL CONTAINS CONSTANT-HEAD CELLS


 MAXIMUM STEPSIZE DURING WHICH ANY PARTICLE CANNOT MOVE MORE THAN ONE CELL
<<<<<<< Updated upstream
 = 0.1635    (WHEN MIN. R.F.=1)  AT K=   3, I=   2, J=  29

 MAXIMUM STEPSIZE WHICH MEETS STABILITY CRITERION OF THE ADVECTION TERM
 (FOR PURE FINITE-DIFFERENCE OPTION, MIXELM=0) 
 = 0.1134    (WHEN MIN. R.F.=1)  AT K=   3, I=   2, J=  28
=======
 = 0.1872    (WHEN MIN. R.F.=1)  AT K=   3, I=   2, J=  31

 MAXIMUM STEPSIZE WHICH MEETS STABILITY CRITERION OF THE ADVECTION TERM
 (FOR PURE FINITE-DIFFERENCE OPTION, MIXELM=0) 
 = 0.1250    (WHEN MIN. R.F.=1)  AT K=   3, I=   2, J=  30
>>>>>>> Stashed changes


 TOTAL NUMBER OF POINT SOURCES/SINKS PRESENT IN THE FLOW MODEL =   240

 MAXIMUM STEPSIZE WHICH MEETS STABILITY CRITERION OF THE SINK & SOURCE TERM
 = 0.1000E+31(WHEN MIN. R.F.=1)  AT K=   0, I=   0, J=   0

 MAXIMUM STEPSIZE WHICH MEETS STABILITY CRITERION OF THE DISPERSION TERM
<<<<<<< Updated upstream
 = 0.6206E-02(WHEN MIN. R.F.=1)  AT K=   3, I=   2, J=  31
     1 CALLS TO GCG PACKAGE FOR TRANSPORT TIME STEP   7 IN FLOW TIME STEP  23 STRESS PERIOD   2
    17 TOTAL ITERATIONS
0WARNING: NUMERICAL OSCILLATION ENCOUNTERED
 ONE OR MORE CELL CONCENTRATIONS LESS THAN CRHOREF
 SMALLEST DENSITY =  0.100E+04
 AT CELL (I,J,K) = (   1,  44,  29)
=======
 = 0.6709E-02(WHEN MIN. R.F.=1)  AT K=   3, I=   2, J=  30
     1 CALLS TO GCG PACKAGE FOR TRANSPORT TIME STEP   2 IN FLOW TIME STEP  26 STRESS PERIOD   2
    18 TOTAL ITERATIONS
0WARNING: NUMERICAL OSCILLATION ENCOUNTERED
 ONE OR MORE CELL CONCENTRATIONS LESS THAN CRHOREF
 SMALLEST DENSITY =  0.100E+04
 AT CELL (I,J,K) = (   3,  59,  27)
>>>>>>> Stashed changes

 
 SOLVING FOR HEAD 
 FLOW MODEL IS TRANSIENT
 FLOW MODEL CONTAINS CONSTANT-HEAD CELLS


 MAXIMUM STEPSIZE DURING WHICH ANY PARTICLE CANNOT MOVE MORE THAN ONE CELL
<<<<<<< Updated upstream
 = 0.1635    (WHEN MIN. R.F.=1)  AT K=   3, I=   2, J=  29

 MAXIMUM STEPSIZE WHICH MEETS STABILITY CRITERION OF THE ADVECTION TERM
 (FOR PURE FINITE-DIFFERENCE OPTION, MIXELM=0) 
 = 0.1134    (WHEN MIN. R.F.=1)  AT K=   3, I=   2, J=  28
=======
 = 0.1872    (WHEN MIN. R.F.=1)  AT K=   3, I=   2, J=  31

 MAXIMUM STEPSIZE WHICH MEETS STABILITY CRITERION OF THE ADVECTION TERM
 (FOR PURE FINITE-DIFFERENCE OPTION, MIXELM=0) 
 = 0.1250    (WHEN MIN. R.F.=1)  AT K=   3, I=   2, J=  30
>>>>>>> Stashed changes


 TOTAL NUMBER OF POINT SOURCES/SINKS PRESENT IN THE FLOW MODEL =   240

 MAXIMUM STEPSIZE WHICH MEETS STABILITY CRITERION OF THE SINK & SOURCE TERM
 = 0.1000E+31(WHEN MIN. R.F.=1)  AT K=   0, I=   0, J=   0

 MAXIMUM STEPSIZE WHICH MEETS STABILITY CRITERION OF THE DISPERSION TERM
<<<<<<< Updated upstream
 = 0.6206E-02(WHEN MIN. R.F.=1)  AT K=   3, I=   2, J=  31
     1 CALLS TO GCG PACKAGE FOR TRANSPORT TIME STEP   8 IN FLOW TIME STEP  23 STRESS PERIOD   2
    17 TOTAL ITERATIONS
0WARNING: NUMERICAL OSCILLATION ENCOUNTERED
 ONE OR MORE CELL CONCENTRATIONS LESS THAN CRHOREF
 SMALLEST DENSITY =  0.100E+04
 AT CELL (I,J,K) = (   1,  44,  29)
=======
 = 0.6709E-02(WHEN MIN. R.F.=1)  AT K=   3, I=   2, J=  30
     1 CALLS TO GCG PACKAGE FOR TRANSPORT TIME STEP   3 IN FLOW TIME STEP  26 STRESS PERIOD   2
    18 TOTAL ITERATIONS
0WARNING: NUMERICAL OSCILLATION ENCOUNTERED
 ONE OR MORE CELL CONCENTRATIONS LESS THAN CRHOREF
 SMALLEST DENSITY =  0.100E+04
 AT CELL (I,J,K) = (   3,  59,  27)
>>>>>>> Stashed changes

 
 SOLVING FOR HEAD 
 FLOW MODEL IS TRANSIENT
 FLOW MODEL CONTAINS CONSTANT-HEAD CELLS


 MAXIMUM STEPSIZE DURING WHICH ANY PARTICLE CANNOT MOVE MORE THAN ONE CELL
<<<<<<< Updated upstream
 = 0.1635    (WHEN MIN. R.F.=1)  AT K=   3, I=   2, J=  29

 MAXIMUM STEPSIZE WHICH MEETS STABILITY CRITERION OF THE ADVECTION TERM
 (FOR PURE FINITE-DIFFERENCE OPTION, MIXELM=0) 
 = 0.1134    (WHEN MIN. R.F.=1)  AT K=   3, I=   2, J=  28
=======
 = 0.1872    (WHEN MIN. R.F.=1)  AT K=   3, I=   2, J=  31

 MAXIMUM STEPSIZE WHICH MEETS STABILITY CRITERION OF THE ADVECTION TERM
 (FOR PURE FINITE-DIFFERENCE OPTION, MIXELM=0) 
 = 0.1250    (WHEN MIN. R.F.=1)  AT K=   3, I=   2, J=  30
>>>>>>> Stashed changes


 TOTAL NUMBER OF POINT SOURCES/SINKS PRESENT IN THE FLOW MODEL =   240

 MAXIMUM STEPSIZE WHICH MEETS STABILITY CRITERION OF THE SINK & SOURCE TERM
 = 0.1000E+31(WHEN MIN. R.F.=1)  AT K=   0, I=   0, J=   0

 MAXIMUM STEPSIZE WHICH MEETS STABILITY CRITERION OF THE DISPERSION TERM
<<<<<<< Updated upstream
 = 0.6206E-02(WHEN MIN. R.F.=1)  AT K=   3, I=   2, J=  31
     1 CALLS TO GCG PACKAGE FOR TRANSPORT TIME STEP   9 IN FLOW TIME STEP  23 STRESS PERIOD   2
     8 TOTAL ITERATIONS
  MAXIMUM CONCENTRATION CHANGES FOR EACH ITERATION:
  MAX. CHANGE LAYER,ROW,COL MAX. CHANGE LAYER,ROW,COL MAX. CHANGE LAYER,ROW,COL MAX. CHANGE LAYER,ROW,COL MAX. CHANGE LAYER,ROW,COL
 ------------------------------------------------------------------------------------------------------------------------------------
   0.3712E-03 ( 12,  3, 55)  0.3749E-04 (  6,  1, 56)  0.6897E-05 (  4,  2, 46)  0.2791E-05 (  3,  3, 31)  0.1158E-05 (  3,  3, 30)
   0.5165E-06 (  3,  3, 31)  0.1483E-06 (  3,  3, 30)  0.4712E-07 (  3,  3, 29)
0WARNING: NUMERICAL OSCILLATION ENCOUNTERED
 ONE OR MORE CELL CONCENTRATIONS LESS THAN CRHOREF
 SMALLEST DENSITY =  0.100E+04
 AT CELL (I,J,K) = (   1,  44,  29)



                                          ================================================
                                                         FROM TIME =   24.000     TO    25.000    
=======
 = 0.6709E-02(WHEN MIN. R.F.=1)  AT K=   3, I=   2, J=  30
     1 CALLS TO GCG PACKAGE FOR TRANSPORT TIME STEP   4 IN FLOW TIME STEP  26 STRESS PERIOD   2
    18 TOTAL ITERATIONS
0WARNING: NUMERICAL OSCILLATION ENCOUNTERED
 ONE OR MORE CELL CONCENTRATIONS LESS THAN CRHOREF
 SMALLEST DENSITY =  0.100E+04
 AT CELL (I,J,K) = (   3,  59,  27)
>>>>>>> Stashed changes

 
 SOLVING FOR HEAD 
 FLOW MODEL IS TRANSIENT
 FLOW MODEL CONTAINS CONSTANT-HEAD CELLS


 MAXIMUM STEPSIZE DURING WHICH ANY PARTICLE CANNOT MOVE MORE THAN ONE CELL
<<<<<<< Updated upstream
 = 0.1635    (WHEN MIN. R.F.=1)  AT K=   3, I=   2, J=  29

 MAXIMUM STEPSIZE WHICH MEETS STABILITY CRITERION OF THE ADVECTION TERM
 (FOR PURE FINITE-DIFFERENCE OPTION, MIXELM=0) 
 = 0.1134    (WHEN MIN. R.F.=1)  AT K=   3, I=   2, J=  28
=======
 = 0.1872    (WHEN MIN. R.F.=1)  AT K=   3, I=   2, J=  31

 MAXIMUM STEPSIZE WHICH MEETS STABILITY CRITERION OF THE ADVECTION TERM
 (FOR PURE FINITE-DIFFERENCE OPTION, MIXELM=0) 
 = 0.1250    (WHEN MIN. R.F.=1)  AT K=   3, I=   2, J=  30
>>>>>>> Stashed changes


 TOTAL NUMBER OF POINT SOURCES/SINKS PRESENT IN THE FLOW MODEL =   240

 MAXIMUM STEPSIZE WHICH MEETS STABILITY CRITERION OF THE SINK & SOURCE TERM
 = 0.1000E+31(WHEN MIN. R.F.=1)  AT K=   0, I=   0, J=   0

 MAXIMUM STEPSIZE WHICH MEETS STABILITY CRITERION OF THE DISPERSION TERM
<<<<<<< Updated upstream
 = 0.6206E-02(WHEN MIN. R.F.=1)  AT K=   3, I=   2, J=  31


     1 CALLS TO GCG PACKAGE FOR TRANSPORT TIME STEP   1 IN FLOW TIME STEP  24 STRESS PERIOD   2
    17 TOTAL ITERATIONS

 NO OUTPUT CONTROL FOR STRESS PERIOD    2   TIME STEP  24
0WARNING: NUMERICAL OSCILLATION ENCOUNTERED
 ONE OR MORE CELL CONCENTRATIONS LESS THAN CRHOREF
 SMALLEST DENSITY =  0.100E+04
 AT CELL (I,J,K) = (   1,  44,  29)
=======
 = 0.6709E-02(WHEN MIN. R.F.=1)  AT K=   3, I=   2, J=  30
     1 CALLS TO GCG PACKAGE FOR TRANSPORT TIME STEP   5 IN FLOW TIME STEP  26 STRESS PERIOD   2
    18 TOTAL ITERATIONS
0WARNING: NUMERICAL OSCILLATION ENCOUNTERED
 ONE OR MORE CELL CONCENTRATIONS LESS THAN CRHOREF
 SMALLEST DENSITY =  0.100E+04
 AT CELL (I,J,K) = (   3,  59,  27)
>>>>>>> Stashed changes

 
 SOLVING FOR HEAD 
 FLOW MODEL IS TRANSIENT
 FLOW MODEL CONTAINS CONSTANT-HEAD CELLS


 MAXIMUM STEPSIZE DURING WHICH ANY PARTICLE CANNOT MOVE MORE THAN ONE CELL
<<<<<<< Updated upstream
 = 0.1635    (WHEN MIN. R.F.=1)  AT K=   3, I=   2, J=  29

 MAXIMUM STEPSIZE WHICH MEETS STABILITY CRITERION OF THE ADVECTION TERM
 (FOR PURE FINITE-DIFFERENCE OPTION, MIXELM=0) 
 = 0.1134    (WHEN MIN. R.F.=1)  AT K=   3, I=   2, J=  28
=======
 = 0.1872    (WHEN MIN. R.F.=1)  AT K=   3, I=   2, J=  31

 MAXIMUM STEPSIZE WHICH MEETS STABILITY CRITERION OF THE ADVECTION TERM
 (FOR PURE FINITE-DIFFERENCE OPTION, MIXELM=0) 
 = 0.1250    (WHEN MIN. R.F.=1)  AT K=   3, I=   2, J=  30
>>>>>>> Stashed changes


 TOTAL NUMBER OF POINT SOURCES/SINKS PRESENT IN THE FLOW MODEL =   240

 MAXIMUM STEPSIZE WHICH MEETS STABILITY CRITERION OF THE SINK & SOURCE TERM
 = 0.1000E+31(WHEN MIN. R.F.=1)  AT K=   0, I=   0, J=   0

 MAXIMUM STEPSIZE WHICH MEETS STABILITY CRITERION OF THE DISPERSION TERM
<<<<<<< Updated upstream
 = 0.6206E-02(WHEN MIN. R.F.=1)  AT K=   3, I=   2, J=  31
     1 CALLS TO GCG PACKAGE FOR TRANSPORT TIME STEP   2 IN FLOW TIME STEP  24 STRESS PERIOD   2
    17 TOTAL ITERATIONS
0WARNING: NUMERICAL OSCILLATION ENCOUNTERED
 ONE OR MORE CELL CONCENTRATIONS LESS THAN CRHOREF
 SMALLEST DENSITY =  0.100E+04
 AT CELL (I,J,K) = (   1,  44,  29)
=======
 = 0.6709E-02(WHEN MIN. R.F.=1)  AT K=   3, I=   2, J=  30
     1 CALLS TO GCG PACKAGE FOR TRANSPORT TIME STEP   6 IN FLOW TIME STEP  26 STRESS PERIOD   2
    18 TOTAL ITERATIONS
0WARNING: NUMERICAL OSCILLATION ENCOUNTERED
 ONE OR MORE CELL CONCENTRATIONS LESS THAN CRHOREF
 SMALLEST DENSITY =  0.100E+04
 AT CELL (I,J,K) = (   3,  59,  27)
>>>>>>> Stashed changes

 
 SOLVING FOR HEAD 
 FLOW MODEL IS TRANSIENT
 FLOW MODEL CONTAINS CONSTANT-HEAD CELLS


 MAXIMUM STEPSIZE DURING WHICH ANY PARTICLE CANNOT MOVE MORE THAN ONE CELL
<<<<<<< Updated upstream
 = 0.1635    (WHEN MIN. R.F.=1)  AT K=   3, I=   2, J=  29

 MAXIMUM STEPSIZE WHICH MEETS STABILITY CRITERION OF THE ADVECTION TERM
 (FOR PURE FINITE-DIFFERENCE OPTION, MIXELM=0) 
 = 0.1134    (WHEN MIN. R.F.=1)  AT K=   3, I=   2, J=  28
=======
 = 0.1872    (WHEN MIN. R.F.=1)  AT K=   3, I=   2, J=  31

 MAXIMUM STEPSIZE WHICH MEETS STABILITY CRITERION OF THE ADVECTION TERM
 (FOR PURE FINITE-DIFFERENCE OPTION, MIXELM=0) 
 = 0.1250    (WHEN MIN. R.F.=1)  AT K=   3, I=   2, J=  30
>>>>>>> Stashed changes


 TOTAL NUMBER OF POINT SOURCES/SINKS PRESENT IN THE FLOW MODEL =   240

 MAXIMUM STEPSIZE WHICH MEETS STABILITY CRITERION OF THE SINK & SOURCE TERM
 = 0.1000E+31(WHEN MIN. R.F.=1)  AT K=   0, I=   0, J=   0

 MAXIMUM STEPSIZE WHICH MEETS STABILITY CRITERION OF THE DISPERSION TERM
<<<<<<< Updated upstream
 = 0.6206E-02(WHEN MIN. R.F.=1)  AT K=   3, I=   2, J=  31
     1 CALLS TO GCG PACKAGE FOR TRANSPORT TIME STEP   3 IN FLOW TIME STEP  24 STRESS PERIOD   2
    17 TOTAL ITERATIONS
0WARNING: NUMERICAL OSCILLATION ENCOUNTERED
 ONE OR MORE CELL CONCENTRATIONS LESS THAN CRHOREF
 SMALLEST DENSITY =  0.100E+04
 AT CELL (I,J,K) = (   1,  44,  29)
=======
 = 0.6709E-02(WHEN MIN. R.F.=1)  AT K=   3, I=   2, J=  30
     1 CALLS TO GCG PACKAGE FOR TRANSPORT TIME STEP   7 IN FLOW TIME STEP  26 STRESS PERIOD   2
    18 TOTAL ITERATIONS
0WARNING: NUMERICAL OSCILLATION ENCOUNTERED
 ONE OR MORE CELL CONCENTRATIONS LESS THAN CRHOREF
 SMALLEST DENSITY =  0.100E+04
 AT CELL (I,J,K) = (   3,  59,  27)
>>>>>>> Stashed changes

 
 SOLVING FOR HEAD 
 FLOW MODEL IS TRANSIENT
 FLOW MODEL CONTAINS CONSTANT-HEAD CELLS


 MAXIMUM STEPSIZE DURING WHICH ANY PARTICLE CANNOT MOVE MORE THAN ONE CELL
<<<<<<< Updated upstream
 = 0.1635    (WHEN MIN. R.F.=1)  AT K=   3, I=   2, J=  29

 MAXIMUM STEPSIZE WHICH MEETS STABILITY CRITERION OF THE ADVECTION TERM
 (FOR PURE FINITE-DIFFERENCE OPTION, MIXELM=0) 
 = 0.1134    (WHEN MIN. R.F.=1)  AT K=   3, I=   2, J=  28
=======
 = 0.1872    (WHEN MIN. R.F.=1)  AT K=   3, I=   2, J=  31

 MAXIMUM STEPSIZE WHICH MEETS STABILITY CRITERION OF THE ADVECTION TERM
 (FOR PURE FINITE-DIFFERENCE OPTION, MIXELM=0) 
 = 0.1250    (WHEN MIN. R.F.=1)  AT K=   3, I=   2, J=  30
>>>>>>> Stashed changes


 TOTAL NUMBER OF POINT SOURCES/SINKS PRESENT IN THE FLOW MODEL =   240

 MAXIMUM STEPSIZE WHICH MEETS STABILITY CRITERION OF THE SINK & SOURCE TERM
 = 0.1000E+31(WHEN MIN. R.F.=1)  AT K=   0, I=   0, J=   0

 MAXIMUM STEPSIZE WHICH MEETS STABILITY CRITERION OF THE DISPERSION TERM
<<<<<<< Updated upstream
 = 0.6206E-02(WHEN MIN. R.F.=1)  AT K=   3, I=   2, J=  31
     1 CALLS TO GCG PACKAGE FOR TRANSPORT TIME STEP   4 IN FLOW TIME STEP  24 STRESS PERIOD   2
    17 TOTAL ITERATIONS
0WARNING: NUMERICAL OSCILLATION ENCOUNTERED
 ONE OR MORE CELL CONCENTRATIONS LESS THAN CRHOREF
 SMALLEST DENSITY =  0.100E+04
 AT CELL (I,J,K) = (   1,  44,  29)
=======
 = 0.6709E-02(WHEN MIN. R.F.=1)  AT K=   3, I=   2, J=  30
     1 CALLS TO GCG PACKAGE FOR TRANSPORT TIME STEP   8 IN FLOW TIME STEP  26 STRESS PERIOD   2
     7 TOTAL ITERATIONS
  MAXIMUM CONCENTRATION CHANGES FOR EACH ITERATION:
  MAX. CHANGE LAYER,ROW,COL MAX. CHANGE LAYER,ROW,COL MAX. CHANGE LAYER,ROW,COL MAX. CHANGE LAYER,ROW,COL MAX. CHANGE LAYER,ROW,COL
 ------------------------------------------------------------------------------------------------------------------------------------
   0.2891E-03 ( 13,  2, 54)  0.2153E-04 (  6,  1, 52)  0.5401E-05 (  4,  2, 44)  0.1968E-05 (  3,  2, 37)  0.4864E-06 (  4,  1, 31)
   0.1833E-06 (  3,  1, 31)  0.4505E-07 (  4,  3, 27)
 UBDSV1 SAVING "         STORAGE" ON UNIT  53 AT TIME STEP 26, STRESS PERIOD   2
 UBDSV2 SAVING "   CONSTANT HEAD" ON UNIT  53 AT TIME STEP 26, STRESS PERIOD   2
 UBDSV1 SAVING "FLOW RIGHT FACE " ON UNIT  53 AT TIME STEP 26, STRESS PERIOD   2
 UBDSV1 SAVING "FLOW FRONT FACE " ON UNIT  53 AT TIME STEP 26, STRESS PERIOD   2
 UBDSV1 SAVING "FLOW LOWER FACE " ON UNIT  53 AT TIME STEP 26, STRESS PERIOD   2
 UBDSV1 SAVING "            DCDT" ON UNIT  53 AT TIME STEP 26, STRESS PERIOD   2
0WARNING: NUMERICAL OSCILLATION ENCOUNTERED
 ONE OR MORE CELL CONCENTRATIONS LESS THAN CRHOREF
 SMALLEST DENSITY =  0.100E+04
 AT CELL (I,J,K) = (   3,  59,  27)


 HEAD WILL BE SAVED ON UNIT   51 AT END OF TIME STEP  26, STRESS PERIOD    2


                                          ================================================
                                                         FROM TIME =   27.000     TO    28.000    
>>>>>>> Stashed changes

 
 SOLVING FOR HEAD 
 FLOW MODEL IS TRANSIENT
 FLOW MODEL CONTAINS CONSTANT-HEAD CELLS


 MAXIMUM STEPSIZE DURING WHICH ANY PARTICLE CANNOT MOVE MORE THAN ONE CELL
<<<<<<< Updated upstream
 = 0.1635    (WHEN MIN. R.F.=1)  AT K=   3, I=   2, J=  29

 MAXIMUM STEPSIZE WHICH MEETS STABILITY CRITERION OF THE ADVECTION TERM
 (FOR PURE FINITE-DIFFERENCE OPTION, MIXELM=0) 
 = 0.1134    (WHEN MIN. R.F.=1)  AT K=   3, I=   2, J=  28
=======
 = 0.1872    (WHEN MIN. R.F.=1)  AT K=   3, I=   2, J=  31

 MAXIMUM STEPSIZE WHICH MEETS STABILITY CRITERION OF THE ADVECTION TERM
 (FOR PURE FINITE-DIFFERENCE OPTION, MIXELM=0) 
 = 0.1250    (WHEN MIN. R.F.=1)  AT K=   3, I=   2, J=  30
>>>>>>> Stashed changes


 TOTAL NUMBER OF POINT SOURCES/SINKS PRESENT IN THE FLOW MODEL =   240

 MAXIMUM STEPSIZE WHICH MEETS STABILITY CRITERION OF THE SINK & SOURCE TERM
 = 0.1000E+31(WHEN MIN. R.F.=1)  AT K=   0, I=   0, J=   0

 MAXIMUM STEPSIZE WHICH MEETS STABILITY CRITERION OF THE DISPERSION TERM
<<<<<<< Updated upstream
 = 0.6206E-02(WHEN MIN. R.F.=1)  AT K=   3, I=   2, J=  31
     1 CALLS TO GCG PACKAGE FOR TRANSPORT TIME STEP   5 IN FLOW TIME STEP  24 STRESS PERIOD   2
    17 TOTAL ITERATIONS
0WARNING: NUMERICAL OSCILLATION ENCOUNTERED
 ONE OR MORE CELL CONCENTRATIONS LESS THAN CRHOREF
 SMALLEST DENSITY =  0.100E+04
 AT CELL (I,J,K) = (   1,  44,  29)
=======
 = 0.6708E-02(WHEN MIN. R.F.=1)  AT K=   3, I=   2, J=  30


     1 CALLS TO GCG PACKAGE FOR TRANSPORT TIME STEP   1 IN FLOW TIME STEP  27 STRESS PERIOD   2
    18 TOTAL ITERATIONS

 OUTPUT CONTROL FOR STRESS PERIOD    2   TIME STEP  27
    SAVE HEAD FOR ALL LAYERS
    SAVE BUDGET
0WARNING: NUMERICAL OSCILLATION ENCOUNTERED
 ONE OR MORE CELL CONCENTRATIONS LESS THAN CRHOREF
 SMALLEST DENSITY =  0.100E+04
 AT CELL (I,J,K) = (   3,  59,  27)
>>>>>>> Stashed changes

 
 SOLVING FOR HEAD 
 FLOW MODEL IS TRANSIENT
 FLOW MODEL CONTAINS CONSTANT-HEAD CELLS


 MAXIMUM STEPSIZE DURING WHICH ANY PARTICLE CANNOT MOVE MORE THAN ONE CELL
<<<<<<< Updated upstream
 = 0.1635    (WHEN MIN. R.F.=1)  AT K=   3, I=   2, J=  29

 MAXIMUM STEPSIZE WHICH MEETS STABILITY CRITERION OF THE ADVECTION TERM
 (FOR PURE FINITE-DIFFERENCE OPTION, MIXELM=0) 
 = 0.1134    (WHEN MIN. R.F.=1)  AT K=   3, I=   2, J=  28
=======
 = 0.1872    (WHEN MIN. R.F.=1)  AT K=   3, I=   2, J=  31

 MAXIMUM STEPSIZE WHICH MEETS STABILITY CRITERION OF THE ADVECTION TERM
 (FOR PURE FINITE-DIFFERENCE OPTION, MIXELM=0) 
 = 0.1250    (WHEN MIN. R.F.=1)  AT K=   3, I=   2, J=  30
>>>>>>> Stashed changes


 TOTAL NUMBER OF POINT SOURCES/SINKS PRESENT IN THE FLOW MODEL =   240

 MAXIMUM STEPSIZE WHICH MEETS STABILITY CRITERION OF THE SINK & SOURCE TERM
 = 0.1000E+31(WHEN MIN. R.F.=1)  AT K=   0, I=   0, J=   0

 MAXIMUM STEPSIZE WHICH MEETS STABILITY CRITERION OF THE DISPERSION TERM
<<<<<<< Updated upstream
 = 0.6206E-02(WHEN MIN. R.F.=1)  AT K=   3, I=   2, J=  31
     1 CALLS TO GCG PACKAGE FOR TRANSPORT TIME STEP   6 IN FLOW TIME STEP  24 STRESS PERIOD   2
    17 TOTAL ITERATIONS
0WARNING: NUMERICAL OSCILLATION ENCOUNTERED
 ONE OR MORE CELL CONCENTRATIONS LESS THAN CRHOREF
 SMALLEST DENSITY =  0.100E+04
 AT CELL (I,J,K) = (   1,  44,  29)
=======
 = 0.6708E-02(WHEN MIN. R.F.=1)  AT K=   3, I=   2, J=  30
     1 CALLS TO GCG PACKAGE FOR TRANSPORT TIME STEP   2 IN FLOW TIME STEP  27 STRESS PERIOD   2
    18 TOTAL ITERATIONS
0WARNING: NUMERICAL OSCILLATION ENCOUNTERED
 ONE OR MORE CELL CONCENTRATIONS LESS THAN CRHOREF
 SMALLEST DENSITY =  0.100E+04
 AT CELL (I,J,K) = (   3,  59,  27)
>>>>>>> Stashed changes

 
 SOLVING FOR HEAD 
 FLOW MODEL IS TRANSIENT
 FLOW MODEL CONTAINS CONSTANT-HEAD CELLS


 MAXIMUM STEPSIZE DURING WHICH ANY PARTICLE CANNOT MOVE MORE THAN ONE CELL
<<<<<<< Updated upstream
 = 0.1635    (WHEN MIN. R.F.=1)  AT K=   3, I=   2, J=  29

 MAXIMUM STEPSIZE WHICH MEETS STABILITY CRITERION OF THE ADVECTION TERM
 (FOR PURE FINITE-DIFFERENCE OPTION, MIXELM=0) 
 = 0.1134    (WHEN MIN. R.F.=1)  AT K=   3, I=   2, J=  28
=======
 = 0.1872    (WHEN MIN. R.F.=1)  AT K=   3, I=   2, J=  31

 MAXIMUM STEPSIZE WHICH MEETS STABILITY CRITERION OF THE ADVECTION TERM
 (FOR PURE FINITE-DIFFERENCE OPTION, MIXELM=0) 
 = 0.1250    (WHEN MIN. R.F.=1)  AT K=   3, I=   2, J=  30
>>>>>>> Stashed changes


 TOTAL NUMBER OF POINT SOURCES/SINKS PRESENT IN THE FLOW MODEL =   240

 MAXIMUM STEPSIZE WHICH MEETS STABILITY CRITERION OF THE SINK & SOURCE TERM
 = 0.1000E+31(WHEN MIN. R.F.=1)  AT K=   0, I=   0, J=   0

 MAXIMUM STEPSIZE WHICH MEETS STABILITY CRITERION OF THE DISPERSION TERM
<<<<<<< Updated upstream
 = 0.6206E-02(WHEN MIN. R.F.=1)  AT K=   3, I=   2, J=  31
     1 CALLS TO GCG PACKAGE FOR TRANSPORT TIME STEP   7 IN FLOW TIME STEP  24 STRESS PERIOD   2
    17 TOTAL ITERATIONS
0WARNING: NUMERICAL OSCILLATION ENCOUNTERED
 ONE OR MORE CELL CONCENTRATIONS LESS THAN CRHOREF
 SMALLEST DENSITY =  0.100E+04
 AT CELL (I,J,K) = (   1,  44,  29)
=======
 = 0.6708E-02(WHEN MIN. R.F.=1)  AT K=   3, I=   2, J=  30
     1 CALLS TO GCG PACKAGE FOR TRANSPORT TIME STEP   3 IN FLOW TIME STEP  27 STRESS PERIOD   2
    18 TOTAL ITERATIONS
0WARNING: NUMERICAL OSCILLATION ENCOUNTERED
 ONE OR MORE CELL CONCENTRATIONS LESS THAN CRHOREF
 SMALLEST DENSITY =  0.100E+04
 AT CELL (I,J,K) = (   3,  59,  27)
>>>>>>> Stashed changes

 
 SOLVING FOR HEAD 
 FLOW MODEL IS TRANSIENT
 FLOW MODEL CONTAINS CONSTANT-HEAD CELLS


 MAXIMUM STEPSIZE DURING WHICH ANY PARTICLE CANNOT MOVE MORE THAN ONE CELL
<<<<<<< Updated upstream
 = 0.1635    (WHEN MIN. R.F.=1)  AT K=   3, I=   2, J=  29

 MAXIMUM STEPSIZE WHICH MEETS STABILITY CRITERION OF THE ADVECTION TERM
 (FOR PURE FINITE-DIFFERENCE OPTION, MIXELM=0) 
 = 0.1134    (WHEN MIN. R.F.=1)  AT K=   3, I=   2, J=  28
=======
 = 0.1872    (WHEN MIN. R.F.=1)  AT K=   3, I=   2, J=  31

 MAXIMUM STEPSIZE WHICH MEETS STABILITY CRITERION OF THE ADVECTION TERM
 (FOR PURE FINITE-DIFFERENCE OPTION, MIXELM=0) 
 = 0.1250    (WHEN MIN. R.F.=1)  AT K=   3, I=   2, J=  30
>>>>>>> Stashed changes


 TOTAL NUMBER OF POINT SOURCES/SINKS PRESENT IN THE FLOW MODEL =   240

 MAXIMUM STEPSIZE WHICH MEETS STABILITY CRITERION OF THE SINK & SOURCE TERM
 = 0.1000E+31(WHEN MIN. R.F.=1)  AT K=   0, I=   0, J=   0

 MAXIMUM STEPSIZE WHICH MEETS STABILITY CRITERION OF THE DISPERSION TERM
<<<<<<< Updated upstream
 = 0.6206E-02(WHEN MIN. R.F.=1)  AT K=   3, I=   2, J=  31
     1 CALLS TO GCG PACKAGE FOR TRANSPORT TIME STEP   8 IN FLOW TIME STEP  24 STRESS PERIOD   2
    17 TOTAL ITERATIONS
0WARNING: NUMERICAL OSCILLATION ENCOUNTERED
 ONE OR MORE CELL CONCENTRATIONS LESS THAN CRHOREF
 SMALLEST DENSITY =  0.100E+04
 AT CELL (I,J,K) = (   1,  44,  29)
=======
 = 0.6708E-02(WHEN MIN. R.F.=1)  AT K=   3, I=   2, J=  30
     1 CALLS TO GCG PACKAGE FOR TRANSPORT TIME STEP   4 IN FLOW TIME STEP  27 STRESS PERIOD   2
    18 TOTAL ITERATIONS
0WARNING: NUMERICAL OSCILLATION ENCOUNTERED
 ONE OR MORE CELL CONCENTRATIONS LESS THAN CRHOREF
 SMALLEST DENSITY =  0.100E+04
 AT CELL (I,J,K) = (   3,  59,  27)
>>>>>>> Stashed changes

 
 SOLVING FOR HEAD 
 FLOW MODEL IS TRANSIENT
 FLOW MODEL CONTAINS CONSTANT-HEAD CELLS


 MAXIMUM STEPSIZE DURING WHICH ANY PARTICLE CANNOT MOVE MORE THAN ONE CELL
<<<<<<< Updated upstream
 = 0.1635    (WHEN MIN. R.F.=1)  AT K=   3, I=   2, J=  29

 MAXIMUM STEPSIZE WHICH MEETS STABILITY CRITERION OF THE ADVECTION TERM
 (FOR PURE FINITE-DIFFERENCE OPTION, MIXELM=0) 
 = 0.1134    (WHEN MIN. R.F.=1)  AT K=   3, I=   2, J=  28
=======
 = 0.1871    (WHEN MIN. R.F.=1)  AT K=   3, I=   2, J=  31

 MAXIMUM STEPSIZE WHICH MEETS STABILITY CRITERION OF THE ADVECTION TERM
 (FOR PURE FINITE-DIFFERENCE OPTION, MIXELM=0) 
 = 0.1250    (WHEN MIN. R.F.=1)  AT K=   3, I=   2, J=  30
>>>>>>> Stashed changes


 TOTAL NUMBER OF POINT SOURCES/SINKS PRESENT IN THE FLOW MODEL =   240

 MAXIMUM STEPSIZE WHICH MEETS STABILITY CRITERION OF THE SINK & SOURCE TERM
 = 0.1000E+31(WHEN MIN. R.F.=1)  AT K=   0, I=   0, J=   0

 MAXIMUM STEPSIZE WHICH MEETS STABILITY CRITERION OF THE DISPERSION TERM
<<<<<<< Updated upstream
 = 0.6206E-02(WHEN MIN. R.F.=1)  AT K=   3, I=   2, J=  31
     1 CALLS TO GCG PACKAGE FOR TRANSPORT TIME STEP   9 IN FLOW TIME STEP  24 STRESS PERIOD   2
     8 TOTAL ITERATIONS
  MAXIMUM CONCENTRATION CHANGES FOR EACH ITERATION:
  MAX. CHANGE LAYER,ROW,COL MAX. CHANGE LAYER,ROW,COL MAX. CHANGE LAYER,ROW,COL MAX. CHANGE LAYER,ROW,COL MAX. CHANGE LAYER,ROW,COL
 ------------------------------------------------------------------------------------------------------------------------------------
   0.3550E-03 ( 12,  3, 55)  0.3508E-04 (  6,  1, 56)  0.6390E-05 (  4,  2, 46)  0.2594E-05 (  3,  3, 31)  0.1080E-05 (  3,  3, 30)
   0.4805E-06 (  3,  3, 31)  0.1395E-06 (  3,  3, 30)  0.4428E-07 (  3,  3, 29)
0WARNING: NUMERICAL OSCILLATION ENCOUNTERED
 ONE OR MORE CELL CONCENTRATIONS LESS THAN CRHOREF
 SMALLEST DENSITY =  0.100E+04
 AT CELL (I,J,K) = (   1,  44,  29)



                                          ================================================
                                                         FROM TIME =   25.000     TO    26.000    
=======
 = 0.6708E-02(WHEN MIN. R.F.=1)  AT K=   3, I=   2, J=  30
     1 CALLS TO GCG PACKAGE FOR TRANSPORT TIME STEP   5 IN FLOW TIME STEP  27 STRESS PERIOD   2
    18 TOTAL ITERATIONS
0WARNING: NUMERICAL OSCILLATION ENCOUNTERED
 ONE OR MORE CELL CONCENTRATIONS LESS THAN CRHOREF
 SMALLEST DENSITY =  0.100E+04
 AT CELL (I,J,K) = (   3,  59,  27)
>>>>>>> Stashed changes

 
 SOLVING FOR HEAD 
 FLOW MODEL IS TRANSIENT
 FLOW MODEL CONTAINS CONSTANT-HEAD CELLS


 MAXIMUM STEPSIZE DURING WHICH ANY PARTICLE CANNOT MOVE MORE THAN ONE CELL
<<<<<<< Updated upstream
 = 0.1635    (WHEN MIN. R.F.=1)  AT K=   3, I=   2, J=  29

 MAXIMUM STEPSIZE WHICH MEETS STABILITY CRITERION OF THE ADVECTION TERM
 (FOR PURE FINITE-DIFFERENCE OPTION, MIXELM=0) 
 = 0.1134    (WHEN MIN. R.F.=1)  AT K=   3, I=   2, J=  28
=======
 = 0.1871    (WHEN MIN. R.F.=1)  AT K=   3, I=   2, J=  31

 MAXIMUM STEPSIZE WHICH MEETS STABILITY CRITERION OF THE ADVECTION TERM
 (FOR PURE FINITE-DIFFERENCE OPTION, MIXELM=0) 
 = 0.1250    (WHEN MIN. R.F.=1)  AT K=   3, I=   2, J=  30
>>>>>>> Stashed changes


 TOTAL NUMBER OF POINT SOURCES/SINKS PRESENT IN THE FLOW MODEL =   240

 MAXIMUM STEPSIZE WHICH MEETS STABILITY CRITERION OF THE SINK & SOURCE TERM
 = 0.1000E+31(WHEN MIN. R.F.=1)  AT K=   0, I=   0, J=   0

 MAXIMUM STEPSIZE WHICH MEETS STABILITY CRITERION OF THE DISPERSION TERM
<<<<<<< Updated upstream
 = 0.6206E-02(WHEN MIN. R.F.=1)  AT K=   3, I=   2, J=  31


     1 CALLS TO GCG PACKAGE FOR TRANSPORT TIME STEP   1 IN FLOW TIME STEP  25 STRESS PERIOD   2
    17 TOTAL ITERATIONS

 NO OUTPUT CONTROL FOR STRESS PERIOD    2   TIME STEP  25
0WARNING: NUMERICAL OSCILLATION ENCOUNTERED
 ONE OR MORE CELL CONCENTRATIONS LESS THAN CRHOREF
 SMALLEST DENSITY =  0.100E+04
 AT CELL (I,J,K) = (   1,  44,  29)
=======
 = 0.6708E-02(WHEN MIN. R.F.=1)  AT K=   3, I=   2, J=  30
     1 CALLS TO GCG PACKAGE FOR TRANSPORT TIME STEP   6 IN FLOW TIME STEP  27 STRESS PERIOD   2
    18 TOTAL ITERATIONS
0WARNING: NUMERICAL OSCILLATION ENCOUNTERED
 ONE OR MORE CELL CONCENTRATIONS LESS THAN CRHOREF
 SMALLEST DENSITY =  0.100E+04
 AT CELL (I,J,K) = (   3,  59,  27)
>>>>>>> Stashed changes

 
 SOLVING FOR HEAD 
 FLOW MODEL IS TRANSIENT
 FLOW MODEL CONTAINS CONSTANT-HEAD CELLS


 MAXIMUM STEPSIZE DURING WHICH ANY PARTICLE CANNOT MOVE MORE THAN ONE CELL
<<<<<<< Updated upstream
 = 0.1635    (WHEN MIN. R.F.=1)  AT K=   3, I=   2, J=  29

 MAXIMUM STEPSIZE WHICH MEETS STABILITY CRITERION OF THE ADVECTION TERM
 (FOR PURE FINITE-DIFFERENCE OPTION, MIXELM=0) 
 = 0.1134    (WHEN MIN. R.F.=1)  AT K=   3, I=   2, J=  28
=======
 = 0.1871    (WHEN MIN. R.F.=1)  AT K=   3, I=   2, J=  31

 MAXIMUM STEPSIZE WHICH MEETS STABILITY CRITERION OF THE ADVECTION TERM
 (FOR PURE FINITE-DIFFERENCE OPTION, MIXELM=0) 
 = 0.1250    (WHEN MIN. R.F.=1)  AT K=   3, I=   2, J=  30
>>>>>>> Stashed changes


 TOTAL NUMBER OF POINT SOURCES/SINKS PRESENT IN THE FLOW MODEL =   240

 MAXIMUM STEPSIZE WHICH MEETS STABILITY CRITERION OF THE SINK & SOURCE TERM
 = 0.1000E+31(WHEN MIN. R.F.=1)  AT K=   0, I=   0, J=   0

 MAXIMUM STEPSIZE WHICH MEETS STABILITY CRITERION OF THE DISPERSION TERM
<<<<<<< Updated upstream
 = 0.6206E-02(WHEN MIN. R.F.=1)  AT K=   3, I=   2, J=  31
     1 CALLS TO GCG PACKAGE FOR TRANSPORT TIME STEP   2 IN FLOW TIME STEP  25 STRESS PERIOD   2
    17 TOTAL ITERATIONS
0WARNING: NUMERICAL OSCILLATION ENCOUNTERED
 ONE OR MORE CELL CONCENTRATIONS LESS THAN CRHOREF
 SMALLEST DENSITY =  0.100E+04
 AT CELL (I,J,K) = (   1,  44,  29)
=======
 = 0.6708E-02(WHEN MIN. R.F.=1)  AT K=   3, I=   2, J=  30
     1 CALLS TO GCG PACKAGE FOR TRANSPORT TIME STEP   7 IN FLOW TIME STEP  27 STRESS PERIOD   2
    18 TOTAL ITERATIONS
0WARNING: NUMERICAL OSCILLATION ENCOUNTERED
 ONE OR MORE CELL CONCENTRATIONS LESS THAN CRHOREF
 SMALLEST DENSITY =  0.100E+04
 AT CELL (I,J,K) = (   3,  59,  27)
>>>>>>> Stashed changes

 
 SOLVING FOR HEAD 
 FLOW MODEL IS TRANSIENT
 FLOW MODEL CONTAINS CONSTANT-HEAD CELLS


 MAXIMUM STEPSIZE DURING WHICH ANY PARTICLE CANNOT MOVE MORE THAN ONE CELL
<<<<<<< Updated upstream
 = 0.1635    (WHEN MIN. R.F.=1)  AT K=   3, I=   2, J=  29

 MAXIMUM STEPSIZE WHICH MEETS STABILITY CRITERION OF THE ADVECTION TERM
 (FOR PURE FINITE-DIFFERENCE OPTION, MIXELM=0) 
 = 0.1134    (WHEN MIN. R.F.=1)  AT K=   3, I=   2, J=  28
=======
 = 0.1871    (WHEN MIN. R.F.=1)  AT K=   3, I=   2, J=  31

 MAXIMUM STEPSIZE WHICH MEETS STABILITY CRITERION OF THE ADVECTION TERM
 (FOR PURE FINITE-DIFFERENCE OPTION, MIXELM=0) 
 = 0.1250    (WHEN MIN. R.F.=1)  AT K=   3, I=   2, J=  30
>>>>>>> Stashed changes


 TOTAL NUMBER OF POINT SOURCES/SINKS PRESENT IN THE FLOW MODEL =   240

 MAXIMUM STEPSIZE WHICH MEETS STABILITY CRITERION OF THE SINK & SOURCE TERM
 = 0.1000E+31(WHEN MIN. R.F.=1)  AT K=   0, I=   0, J=   0

 MAXIMUM STEPSIZE WHICH MEETS STABILITY CRITERION OF THE DISPERSION TERM
<<<<<<< Updated upstream
 = 0.6206E-02(WHEN MIN. R.F.=1)  AT K=   3, I=   2, J=  31
     1 CALLS TO GCG PACKAGE FOR TRANSPORT TIME STEP   3 IN FLOW TIME STEP  25 STRESS PERIOD   2
    17 TOTAL ITERATIONS
0WARNING: NUMERICAL OSCILLATION ENCOUNTERED
 ONE OR MORE CELL CONCENTRATIONS LESS THAN CRHOREF
 SMALLEST DENSITY =  0.100E+04
 AT CELL (I,J,K) = (   1,  44,  29)
=======
 = 0.6708E-02(WHEN MIN. R.F.=1)  AT K=   3, I=   2, J=  30
     1 CALLS TO GCG PACKAGE FOR TRANSPORT TIME STEP   8 IN FLOW TIME STEP  27 STRESS PERIOD   2
     7 TOTAL ITERATIONS
  MAXIMUM CONCENTRATION CHANGES FOR EACH ITERATION:
  MAX. CHANGE LAYER,ROW,COL MAX. CHANGE LAYER,ROW,COL MAX. CHANGE LAYER,ROW,COL MAX. CHANGE LAYER,ROW,COL MAX. CHANGE LAYER,ROW,COL
 ------------------------------------------------------------------------------------------------------------------------------------
   0.2798E-03 ( 13,  2, 54)  0.2019E-04 (  6,  1, 52)  0.5029E-05 (  4,  2, 44)  0.1833E-05 (  3,  2, 37)  0.4552E-06 (  4,  1, 31)
   0.1719E-06 (  3,  1, 31)  0.4244E-07 (  4,  3, 27)
 UBDSV1 SAVING "         STORAGE" ON UNIT  53 AT TIME STEP 27, STRESS PERIOD   2
 UBDSV2 SAVING "   CONSTANT HEAD" ON UNIT  53 AT TIME STEP 27, STRESS PERIOD   2
 UBDSV1 SAVING "FLOW RIGHT FACE " ON UNIT  53 AT TIME STEP 27, STRESS PERIOD   2
 UBDSV1 SAVING "FLOW FRONT FACE " ON UNIT  53 AT TIME STEP 27, STRESS PERIOD   2
 UBDSV1 SAVING "FLOW LOWER FACE " ON UNIT  53 AT TIME STEP 27, STRESS PERIOD   2
 UBDSV1 SAVING "            DCDT" ON UNIT  53 AT TIME STEP 27, STRESS PERIOD   2
0WARNING: NUMERICAL OSCILLATION ENCOUNTERED
 ONE OR MORE CELL CONCENTRATIONS LESS THAN CRHOREF
 SMALLEST DENSITY =  0.100E+04
 AT CELL (I,J,K) = (   3,  59,  27)


 HEAD WILL BE SAVED ON UNIT   51 AT END OF TIME STEP  27, STRESS PERIOD    2


                                          ================================================
                                                         FROM TIME =   28.000     TO    29.000    
>>>>>>> Stashed changes

 
 SOLVING FOR HEAD 
 FLOW MODEL IS TRANSIENT
 FLOW MODEL CONTAINS CONSTANT-HEAD CELLS


 MAXIMUM STEPSIZE DURING WHICH ANY PARTICLE CANNOT MOVE MORE THAN ONE CELL
<<<<<<< Updated upstream
 = 0.1635    (WHEN MIN. R.F.=1)  AT K=   3, I=   2, J=  29

 MAXIMUM STEPSIZE WHICH MEETS STABILITY CRITERION OF THE ADVECTION TERM
 (FOR PURE FINITE-DIFFERENCE OPTION, MIXELM=0) 
 = 0.1134    (WHEN MIN. R.F.=1)  AT K=   3, I=   2, J=  28
=======
 = 0.1871    (WHEN MIN. R.F.=1)  AT K=   3, I=   2, J=  31

 MAXIMUM STEPSIZE WHICH MEETS STABILITY CRITERION OF THE ADVECTION TERM
 (FOR PURE FINITE-DIFFERENCE OPTION, MIXELM=0) 
 = 0.1250    (WHEN MIN. R.F.=1)  AT K=   3, I=   2, J=  30
>>>>>>> Stashed changes


 TOTAL NUMBER OF POINT SOURCES/SINKS PRESENT IN THE FLOW MODEL =   240

 MAXIMUM STEPSIZE WHICH MEETS STABILITY CRITERION OF THE SINK & SOURCE TERM
 = 0.1000E+31(WHEN MIN. R.F.=1)  AT K=   0, I=   0, J=   0

 MAXIMUM STEPSIZE WHICH MEETS STABILITY CRITERION OF THE DISPERSION TERM
<<<<<<< Updated upstream
 = 0.6206E-02(WHEN MIN. R.F.=1)  AT K=   3, I=   2, J=  31
     1 CALLS TO GCG PACKAGE FOR TRANSPORT TIME STEP   4 IN FLOW TIME STEP  25 STRESS PERIOD   2
    17 TOTAL ITERATIONS
0WARNING: NUMERICAL OSCILLATION ENCOUNTERED
 ONE OR MORE CELL CONCENTRATIONS LESS THAN CRHOREF
 SMALLEST DENSITY =  0.100E+04
 AT CELL (I,J,K) = (   1,  44,  29)
=======
 = 0.6708E-02(WHEN MIN. R.F.=1)  AT K=   3, I=   2, J=  30


     1 CALLS TO GCG PACKAGE FOR TRANSPORT TIME STEP   1 IN FLOW TIME STEP  28 STRESS PERIOD   2
    18 TOTAL ITERATIONS

 OUTPUT CONTROL FOR STRESS PERIOD    2   TIME STEP  28
    SAVE HEAD FOR ALL LAYERS
    SAVE BUDGET
0WARNING: NUMERICAL OSCILLATION ENCOUNTERED
 ONE OR MORE CELL CONCENTRATIONS LESS THAN CRHOREF
 SMALLEST DENSITY =  0.100E+04
 AT CELL (I,J,K) = (   3,  59,  27)
>>>>>>> Stashed changes

 
 SOLVING FOR HEAD 
 FLOW MODEL IS TRANSIENT
 FLOW MODEL CONTAINS CONSTANT-HEAD CELLS


 MAXIMUM STEPSIZE DURING WHICH ANY PARTICLE CANNOT MOVE MORE THAN ONE CELL
<<<<<<< Updated upstream
 = 0.1635    (WHEN MIN. R.F.=1)  AT K=   3, I=   2, J=  29

 MAXIMUM STEPSIZE WHICH MEETS STABILITY CRITERION OF THE ADVECTION TERM
 (FOR PURE FINITE-DIFFERENCE OPTION, MIXELM=0) 
 = 0.1134    (WHEN MIN. R.F.=1)  AT K=   3, I=   2, J=  28
=======
 = 0.1871    (WHEN MIN. R.F.=1)  AT K=   3, I=   2, J=  31

 MAXIMUM STEPSIZE WHICH MEETS STABILITY CRITERION OF THE ADVECTION TERM
 (FOR PURE FINITE-DIFFERENCE OPTION, MIXELM=0) 
 = 0.1250    (WHEN MIN. R.F.=1)  AT K=   3, I=   2, J=  30
>>>>>>> Stashed changes


 TOTAL NUMBER OF POINT SOURCES/SINKS PRESENT IN THE FLOW MODEL =   240

 MAXIMUM STEPSIZE WHICH MEETS STABILITY CRITERION OF THE SINK & SOURCE TERM
 = 0.1000E+31(WHEN MIN. R.F.=1)  AT K=   0, I=   0, J=   0

 MAXIMUM STEPSIZE WHICH MEETS STABILITY CRITERION OF THE DISPERSION TERM
<<<<<<< Updated upstream
 = 0.6206E-02(WHEN MIN. R.F.=1)  AT K=   3, I=   2, J=  31
     1 CALLS TO GCG PACKAGE FOR TRANSPORT TIME STEP   5 IN FLOW TIME STEP  25 STRESS PERIOD   2
    17 TOTAL ITERATIONS
0WARNING: NUMERICAL OSCILLATION ENCOUNTERED
 ONE OR MORE CELL CONCENTRATIONS LESS THAN CRHOREF
 SMALLEST DENSITY =  0.100E+04
 AT CELL (I,J,K) = (   1,  44,  29)
=======
 = 0.6708E-02(WHEN MIN. R.F.=1)  AT K=   3, I=   2, J=  30
     1 CALLS TO GCG PACKAGE FOR TRANSPORT TIME STEP   2 IN FLOW TIME STEP  28 STRESS PERIOD   2
    18 TOTAL ITERATIONS
0WARNING: NUMERICAL OSCILLATION ENCOUNTERED
 ONE OR MORE CELL CONCENTRATIONS LESS THAN CRHOREF
 SMALLEST DENSITY =  0.100E+04
 AT CELL (I,J,K) = (   3,  59,  27)
>>>>>>> Stashed changes

 
 SOLVING FOR HEAD 
 FLOW MODEL IS TRANSIENT
 FLOW MODEL CONTAINS CONSTANT-HEAD CELLS


 MAXIMUM STEPSIZE DURING WHICH ANY PARTICLE CANNOT MOVE MORE THAN ONE CELL
<<<<<<< Updated upstream
 = 0.1635    (WHEN MIN. R.F.=1)  AT K=   3, I=   2, J=  29

 MAXIMUM STEPSIZE WHICH MEETS STABILITY CRITERION OF THE ADVECTION TERM
 (FOR PURE FINITE-DIFFERENCE OPTION, MIXELM=0) 
 = 0.1134    (WHEN MIN. R.F.=1)  AT K=   3, I=   2, J=  28
=======
 = 0.1871    (WHEN MIN. R.F.=1)  AT K=   3, I=   2, J=  31

 MAXIMUM STEPSIZE WHICH MEETS STABILITY CRITERION OF THE ADVECTION TERM
 (FOR PURE FINITE-DIFFERENCE OPTION, MIXELM=0) 
 = 0.1250    (WHEN MIN. R.F.=1)  AT K=   3, I=   2, J=  30
>>>>>>> Stashed changes


 TOTAL NUMBER OF POINT SOURCES/SINKS PRESENT IN THE FLOW MODEL =   240

 MAXIMUM STEPSIZE WHICH MEETS STABILITY CRITERION OF THE SINK & SOURCE TERM
 = 0.1000E+31(WHEN MIN. R.F.=1)  AT K=   0, I=   0, J=   0

 MAXIMUM STEPSIZE WHICH MEETS STABILITY CRITERION OF THE DISPERSION TERM
<<<<<<< Updated upstream
 = 0.6206E-02(WHEN MIN. R.F.=1)  AT K=   3, I=   2, J=  31
     1 CALLS TO GCG PACKAGE FOR TRANSPORT TIME STEP   6 IN FLOW TIME STEP  25 STRESS PERIOD   2
    17 TOTAL ITERATIONS
0WARNING: NUMERICAL OSCILLATION ENCOUNTERED
 ONE OR MORE CELL CONCENTRATIONS LESS THAN CRHOREF
 SMALLEST DENSITY =  0.100E+04
 AT CELL (I,J,K) = (   1,  44,  29)
=======
 = 0.6708E-02(WHEN MIN. R.F.=1)  AT K=   3, I=   2, J=  30
     1 CALLS TO GCG PACKAGE FOR TRANSPORT TIME STEP   3 IN FLOW TIME STEP  28 STRESS PERIOD   2
    18 TOTAL ITERATIONS
0WARNING: NUMERICAL OSCILLATION ENCOUNTERED
 ONE OR MORE CELL CONCENTRATIONS LESS THAN CRHOREF
 SMALLEST DENSITY =  0.100E+04
 AT CELL (I,J,K) = (   3,  59,  27)
>>>>>>> Stashed changes

 
 SOLVING FOR HEAD 
 FLOW MODEL IS TRANSIENT
 FLOW MODEL CONTAINS CONSTANT-HEAD CELLS


 MAXIMUM STEPSIZE DURING WHICH ANY PARTICLE CANNOT MOVE MORE THAN ONE CELL
<<<<<<< Updated upstream
 = 0.1635    (WHEN MIN. R.F.=1)  AT K=   3, I=   2, J=  29

 MAXIMUM STEPSIZE WHICH MEETS STABILITY CRITERION OF THE ADVECTION TERM
 (FOR PURE FINITE-DIFFERENCE OPTION, MIXELM=0) 
 = 0.1134    (WHEN MIN. R.F.=1)  AT K=   3, I=   2, J=  28
=======
 = 0.1871    (WHEN MIN. R.F.=1)  AT K=   3, I=   2, J=  31

 MAXIMUM STEPSIZE WHICH MEETS STABILITY CRITERION OF THE ADVECTION TERM
 (FOR PURE FINITE-DIFFERENCE OPTION, MIXELM=0) 
 = 0.1250    (WHEN MIN. R.F.=1)  AT K=   3, I=   2, J=  30
>>>>>>> Stashed changes


 TOTAL NUMBER OF POINT SOURCES/SINKS PRESENT IN THE FLOW MODEL =   240

 MAXIMUM STEPSIZE WHICH MEETS STABILITY CRITERION OF THE SINK & SOURCE TERM
 = 0.1000E+31(WHEN MIN. R.F.=1)  AT K=   0, I=   0, J=   0

 MAXIMUM STEPSIZE WHICH MEETS STABILITY CRITERION OF THE DISPERSION TERM
<<<<<<< Updated upstream
 = 0.6205E-02(WHEN MIN. R.F.=1)  AT K=   3, I=   2, J=  31
     1 CALLS TO GCG PACKAGE FOR TRANSPORT TIME STEP   7 IN FLOW TIME STEP  25 STRESS PERIOD   2
    17 TOTAL ITERATIONS
0WARNING: NUMERICAL OSCILLATION ENCOUNTERED
 ONE OR MORE CELL CONCENTRATIONS LESS THAN CRHOREF
 SMALLEST DENSITY =  0.100E+04
 AT CELL (I,J,K) = (   1,  44,  29)
=======
 = 0.6708E-02(WHEN MIN. R.F.=1)  AT K=   3, I=   2, J=  30
     1 CALLS TO GCG PACKAGE FOR TRANSPORT TIME STEP   4 IN FLOW TIME STEP  28 STRESS PERIOD   2
    18 TOTAL ITERATIONS
0WARNING: NUMERICAL OSCILLATION ENCOUNTERED
 ONE OR MORE CELL CONCENTRATIONS LESS THAN CRHOREF
 SMALLEST DENSITY =  0.100E+04
 AT CELL (I,J,K) = (   3,  59,  27)
>>>>>>> Stashed changes

 
 SOLVING FOR HEAD 
 FLOW MODEL IS TRANSIENT
 FLOW MODEL CONTAINS CONSTANT-HEAD CELLS


 MAXIMUM STEPSIZE DURING WHICH ANY PARTICLE CANNOT MOVE MORE THAN ONE CELL
<<<<<<< Updated upstream
 = 0.1635    (WHEN MIN. R.F.=1)  AT K=   3, I=   2, J=  29

 MAXIMUM STEPSIZE WHICH MEETS STABILITY CRITERION OF THE ADVECTION TERM
 (FOR PURE FINITE-DIFFERENCE OPTION, MIXELM=0) 
 = 0.1134    (WHEN MIN. R.F.=1)  AT K=   3, I=   2, J=  28
=======
 = 0.1871    (WHEN MIN. R.F.=1)  AT K=   3, I=   2, J=  31

 MAXIMUM STEPSIZE WHICH MEETS STABILITY CRITERION OF THE ADVECTION TERM
 (FOR PURE FINITE-DIFFERENCE OPTION, MIXELM=0) 
 = 0.1250    (WHEN MIN. R.F.=1)  AT K=   3, I=   2, J=  30
>>>>>>> Stashed changes


 TOTAL NUMBER OF POINT SOURCES/SINKS PRESENT IN THE FLOW MODEL =   240

 MAXIMUM STEPSIZE WHICH MEETS STABILITY CRITERION OF THE SINK & SOURCE TERM
 = 0.1000E+31(WHEN MIN. R.F.=1)  AT K=   0, I=   0, J=   0

 MAXIMUM STEPSIZE WHICH MEETS STABILITY CRITERION OF THE DISPERSION TERM
<<<<<<< Updated upstream
 = 0.6205E-02(WHEN MIN. R.F.=1)  AT K=   3, I=   2, J=  31
     1 CALLS TO GCG PACKAGE FOR TRANSPORT TIME STEP   8 IN FLOW TIME STEP  25 STRESS PERIOD   2
    17 TOTAL ITERATIONS
0WARNING: NUMERICAL OSCILLATION ENCOUNTERED
 ONE OR MORE CELL CONCENTRATIONS LESS THAN CRHOREF
 SMALLEST DENSITY =  0.100E+04
 AT CELL (I,J,K) = (   1,  44,  29)
=======
 = 0.6708E-02(WHEN MIN. R.F.=1)  AT K=   3, I=   2, J=  30
     1 CALLS TO GCG PACKAGE FOR TRANSPORT TIME STEP   5 IN FLOW TIME STEP  28 STRESS PERIOD   2
    18 TOTAL ITERATIONS
0WARNING: NUMERICAL OSCILLATION ENCOUNTERED
 ONE OR MORE CELL CONCENTRATIONS LESS THAN CRHOREF
 SMALLEST DENSITY =  0.100E+04
 AT CELL (I,J,K) = (   3,  59,  27)
>>>>>>> Stashed changes

 
 SOLVING FOR HEAD 
 FLOW MODEL IS TRANSIENT
 FLOW MODEL CONTAINS CONSTANT-HEAD CELLS


 MAXIMUM STEPSIZE DURING WHICH ANY PARTICLE CANNOT MOVE MORE THAN ONE CELL
<<<<<<< Updated upstream
 = 0.1635    (WHEN MIN. R.F.=1)  AT K=   3, I=   2, J=  29

 MAXIMUM STEPSIZE WHICH MEETS STABILITY CRITERION OF THE ADVECTION TERM
 (FOR PURE FINITE-DIFFERENCE OPTION, MIXELM=0) 
 = 0.1134    (WHEN MIN. R.F.=1)  AT K=   3, I=   2, J=  28
=======
 = 0.1871    (WHEN MIN. R.F.=1)  AT K=   3, I=   2, J=  31

 MAXIMUM STEPSIZE WHICH MEETS STABILITY CRITERION OF THE ADVECTION TERM
 (FOR PURE FINITE-DIFFERENCE OPTION, MIXELM=0) 
 = 0.1250    (WHEN MIN. R.F.=1)  AT K=   3, I=   2, J=  30
>>>>>>> Stashed changes


 TOTAL NUMBER OF POINT SOURCES/SINKS PRESENT IN THE FLOW MODEL =   240

 MAXIMUM STEPSIZE WHICH MEETS STABILITY CRITERION OF THE SINK & SOURCE TERM
 = 0.1000E+31(WHEN MIN. R.F.=1)  AT K=   0, I=   0, J=   0

 MAXIMUM STEPSIZE WHICH MEETS STABILITY CRITERION OF THE DISPERSION TERM
<<<<<<< Updated upstream
 = 0.6205E-02(WHEN MIN. R.F.=1)  AT K=   3, I=   2, J=  31
     1 CALLS TO GCG PACKAGE FOR TRANSPORT TIME STEP   9 IN FLOW TIME STEP  25 STRESS PERIOD   2
     8 TOTAL ITERATIONS
  MAXIMUM CONCENTRATION CHANGES FOR EACH ITERATION:
  MAX. CHANGE LAYER,ROW,COL MAX. CHANGE LAYER,ROW,COL MAX. CHANGE LAYER,ROW,COL MAX. CHANGE LAYER,ROW,COL MAX. CHANGE LAYER,ROW,COL
 ------------------------------------------------------------------------------------------------------------------------------------
   0.3394E-03 ( 12,  3, 55)  0.3288E-04 (  6,  1, 56)  0.5934E-05 (  4,  2, 46)  0.2417E-05 (  3,  3, 31)  0.1009E-05 (  3,  3, 30)
   0.4479E-06 (  3,  3, 31)  0.1314E-06 (  3,  3, 30)  0.4169E-07 (  3,  3, 29)
0WARNING: NUMERICAL OSCILLATION ENCOUNTERED
 ONE OR MORE CELL CONCENTRATIONS LESS THAN CRHOREF
 SMALLEST DENSITY =  0.100E+04
 AT CELL (I,J,K) = (   1,  44,  29)



                                          ================================================
                                                         FROM TIME =   26.000     TO    27.000    
=======
 = 0.6708E-02(WHEN MIN. R.F.=1)  AT K=   3, I=   2, J=  30
     1 CALLS TO GCG PACKAGE FOR TRANSPORT TIME STEP   6 IN FLOW TIME STEP  28 STRESS PERIOD   2
    18 TOTAL ITERATIONS
0WARNING: NUMERICAL OSCILLATION ENCOUNTERED
 ONE OR MORE CELL CONCENTRATIONS LESS THAN CRHOREF
 SMALLEST DENSITY =  0.100E+04
 AT CELL (I,J,K) = (   3,  59,  27)
>>>>>>> Stashed changes

 
 SOLVING FOR HEAD 
 FLOW MODEL IS TRANSIENT
 FLOW MODEL CONTAINS CONSTANT-HEAD CELLS


 MAXIMUM STEPSIZE DURING WHICH ANY PARTICLE CANNOT MOVE MORE THAN ONE CELL
<<<<<<< Updated upstream
 = 0.1635    (WHEN MIN. R.F.=1)  AT K=   3, I=   2, J=  29

 MAXIMUM STEPSIZE WHICH MEETS STABILITY CRITERION OF THE ADVECTION TERM
 (FOR PURE FINITE-DIFFERENCE OPTION, MIXELM=0) 
 = 0.1134    (WHEN MIN. R.F.=1)  AT K=   3, I=   2, J=  28
=======
 = 0.1871    (WHEN MIN. R.F.=1)  AT K=   3, I=   2, J=  31

 MAXIMUM STEPSIZE WHICH MEETS STABILITY CRITERION OF THE ADVECTION TERM
 (FOR PURE FINITE-DIFFERENCE OPTION, MIXELM=0) 
 = 0.1250    (WHEN MIN. R.F.=1)  AT K=   3, I=   2, J=  30
>>>>>>> Stashed changes


 TOTAL NUMBER OF POINT SOURCES/SINKS PRESENT IN THE FLOW MODEL =   240

 MAXIMUM STEPSIZE WHICH MEETS STABILITY CRITERION OF THE SINK & SOURCE TERM
 = 0.1000E+31(WHEN MIN. R.F.=1)  AT K=   0, I=   0, J=   0

 MAXIMUM STEPSIZE WHICH MEETS STABILITY CRITERION OF THE DISPERSION TERM
<<<<<<< Updated upstream
 = 0.6205E-02(WHEN MIN. R.F.=1)  AT K=   3, I=   2, J=  31


     1 CALLS TO GCG PACKAGE FOR TRANSPORT TIME STEP   1 IN FLOW TIME STEP  26 STRESS PERIOD   2
    17 TOTAL ITERATIONS

 NO OUTPUT CONTROL FOR STRESS PERIOD    2   TIME STEP  26
0WARNING: NUMERICAL OSCILLATION ENCOUNTERED
 ONE OR MORE CELL CONCENTRATIONS LESS THAN CRHOREF
 SMALLEST DENSITY =  0.100E+04
 AT CELL (I,J,K) = (   1,  44,  29)
=======
 = 0.6708E-02(WHEN MIN. R.F.=1)  AT K=   3, I=   2, J=  30
     1 CALLS TO GCG PACKAGE FOR TRANSPORT TIME STEP   7 IN FLOW TIME STEP  28 STRESS PERIOD   2
    18 TOTAL ITERATIONS
0WARNING: NUMERICAL OSCILLATION ENCOUNTERED
 ONE OR MORE CELL CONCENTRATIONS LESS THAN CRHOREF
 SMALLEST DENSITY =  0.100E+04
 AT CELL (I,J,K) = (   3,  59,  27)
>>>>>>> Stashed changes

 
 SOLVING FOR HEAD 
 FLOW MODEL IS TRANSIENT
 FLOW MODEL CONTAINS CONSTANT-HEAD CELLS


 MAXIMUM STEPSIZE DURING WHICH ANY PARTICLE CANNOT MOVE MORE THAN ONE CELL
<<<<<<< Updated upstream
 = 0.1635    (WHEN MIN. R.F.=1)  AT K=   3, I=   2, J=  29

 MAXIMUM STEPSIZE WHICH MEETS STABILITY CRITERION OF THE ADVECTION TERM
 (FOR PURE FINITE-DIFFERENCE OPTION, MIXELM=0) 
 = 0.1134    (WHEN MIN. R.F.=1)  AT K=   3, I=   2, J=  28
=======
 = 0.1871    (WHEN MIN. R.F.=1)  AT K=   3, I=   2, J=  31

 MAXIMUM STEPSIZE WHICH MEETS STABILITY CRITERION OF THE ADVECTION TERM
 (FOR PURE FINITE-DIFFERENCE OPTION, MIXELM=0) 
 = 0.1250    (WHEN MIN. R.F.=1)  AT K=   3, I=   2, J=  30
>>>>>>> Stashed changes


 TOTAL NUMBER OF POINT SOURCES/SINKS PRESENT IN THE FLOW MODEL =   240

 MAXIMUM STEPSIZE WHICH MEETS STABILITY CRITERION OF THE SINK & SOURCE TERM
 = 0.1000E+31(WHEN MIN. R.F.=1)  AT K=   0, I=   0, J=   0

 MAXIMUM STEPSIZE WHICH MEETS STABILITY CRITERION OF THE DISPERSION TERM
<<<<<<< Updated upstream
 = 0.6205E-02(WHEN MIN. R.F.=1)  AT K=   3, I=   2, J=  31
     1 CALLS TO GCG PACKAGE FOR TRANSPORT TIME STEP   2 IN FLOW TIME STEP  26 STRESS PERIOD   2
    17 TOTAL ITERATIONS
0WARNING: NUMERICAL OSCILLATION ENCOUNTERED
 ONE OR MORE CELL CONCENTRATIONS LESS THAN CRHOREF
 SMALLEST DENSITY =  0.100E+04
 AT CELL (I,J,K) = (   3,  48,  29)
=======
 = 0.6708E-02(WHEN MIN. R.F.=1)  AT K=   3, I=   2, J=  30
     1 CALLS TO GCG PACKAGE FOR TRANSPORT TIME STEP   8 IN FLOW TIME STEP  28 STRESS PERIOD   2
     7 TOTAL ITERATIONS
  MAXIMUM CONCENTRATION CHANGES FOR EACH ITERATION:
  MAX. CHANGE LAYER,ROW,COL MAX. CHANGE LAYER,ROW,COL MAX. CHANGE LAYER,ROW,COL MAX. CHANGE LAYER,ROW,COL MAX. CHANGE LAYER,ROW,COL
 ------------------------------------------------------------------------------------------------------------------------------------
   0.2708E-03 ( 13,  2, 54)  0.1896E-04 (  6,  1, 52)  0.4692E-05 (  4,  2, 44)  0.1711E-05 (  3,  2, 37)  0.4269E-06 (  4,  1, 31)
   0.1616E-06 (  3,  1, 31)  0.4005E-07 (  4,  3, 27)
 UBDSV1 SAVING "         STORAGE" ON UNIT  53 AT TIME STEP 28, STRESS PERIOD   2
 UBDSV2 SAVING "   CONSTANT HEAD" ON UNIT  53 AT TIME STEP 28, STRESS PERIOD   2
 UBDSV1 SAVING "FLOW RIGHT FACE " ON UNIT  53 AT TIME STEP 28, STRESS PERIOD   2
 UBDSV1 SAVING "FLOW FRONT FACE " ON UNIT  53 AT TIME STEP 28, STRESS PERIOD   2
 UBDSV1 SAVING "FLOW LOWER FACE " ON UNIT  53 AT TIME STEP 28, STRESS PERIOD   2
 UBDSV1 SAVING "            DCDT" ON UNIT  53 AT TIME STEP 28, STRESS PERIOD   2
0WARNING: NUMERICAL OSCILLATION ENCOUNTERED
 ONE OR MORE CELL CONCENTRATIONS LESS THAN CRHOREF
 SMALLEST DENSITY =  0.100E+04
 AT CELL (I,J,K) = (   3,  59,  27)


 HEAD WILL BE SAVED ON UNIT   51 AT END OF TIME STEP  28, STRESS PERIOD    2


                                          ================================================
                                                         FROM TIME =   29.000     TO    30.000    
>>>>>>> Stashed changes

 
 SOLVING FOR HEAD 
 FLOW MODEL IS TRANSIENT
 FLOW MODEL CONTAINS CONSTANT-HEAD CELLS


 MAXIMUM STEPSIZE DURING WHICH ANY PARTICLE CANNOT MOVE MORE THAN ONE CELL
<<<<<<< Updated upstream
 = 0.1635    (WHEN MIN. R.F.=1)  AT K=   3, I=   2, J=  29

 MAXIMUM STEPSIZE WHICH MEETS STABILITY CRITERION OF THE ADVECTION TERM
 (FOR PURE FINITE-DIFFERENCE OPTION, MIXELM=0) 
 = 0.1134    (WHEN MIN. R.F.=1)  AT K=   3, I=   2, J=  28
=======
 = 0.1871    (WHEN MIN. R.F.=1)  AT K=   3, I=   2, J=  31

 MAXIMUM STEPSIZE WHICH MEETS STABILITY CRITERION OF THE ADVECTION TERM
 (FOR PURE FINITE-DIFFERENCE OPTION, MIXELM=0) 
 = 0.1250    (WHEN MIN. R.F.=1)  AT K=   3, I=   2, J=  30
>>>>>>> Stashed changes


 TOTAL NUMBER OF POINT SOURCES/SINKS PRESENT IN THE FLOW MODEL =   240

 MAXIMUM STEPSIZE WHICH MEETS STABILITY CRITERION OF THE SINK & SOURCE TERM
 = 0.1000E+31(WHEN MIN. R.F.=1)  AT K=   0, I=   0, J=   0

 MAXIMUM STEPSIZE WHICH MEETS STABILITY CRITERION OF THE DISPERSION TERM
<<<<<<< Updated upstream
 = 0.6205E-02(WHEN MIN. R.F.=1)  AT K=   3, I=   2, J=  31
     1 CALLS TO GCG PACKAGE FOR TRANSPORT TIME STEP   3 IN FLOW TIME STEP  26 STRESS PERIOD   2
    17 TOTAL ITERATIONS
0WARNING: NUMERICAL OSCILLATION ENCOUNTERED
 ONE OR MORE CELL CONCENTRATIONS LESS THAN CRHOREF
 SMALLEST DENSITY =  0.100E+04
 AT CELL (I,J,K) = (   3,  48,  29)
=======
 = 0.6708E-02(WHEN MIN. R.F.=1)  AT K=   3, I=   2, J=  30


     1 CALLS TO GCG PACKAGE FOR TRANSPORT TIME STEP   1 IN FLOW TIME STEP  29 STRESS PERIOD   2
    18 TOTAL ITERATIONS

 OUTPUT CONTROL FOR STRESS PERIOD    2   TIME STEP  29
    SAVE HEAD FOR ALL LAYERS
    SAVE BUDGET
0WARNING: NUMERICAL OSCILLATION ENCOUNTERED
 ONE OR MORE CELL CONCENTRATIONS LESS THAN CRHOREF
 SMALLEST DENSITY =  0.100E+04
 AT CELL (I,J,K) = (   3,  59,  27)
>>>>>>> Stashed changes

 
 SOLVING FOR HEAD 
 FLOW MODEL IS TRANSIENT
 FLOW MODEL CONTAINS CONSTANT-HEAD CELLS


 MAXIMUM STEPSIZE DURING WHICH ANY PARTICLE CANNOT MOVE MORE THAN ONE CELL
<<<<<<< Updated upstream
 = 0.1635    (WHEN MIN. R.F.=1)  AT K=   3, I=   2, J=  29

 MAXIMUM STEPSIZE WHICH MEETS STABILITY CRITERION OF THE ADVECTION TERM
 (FOR PURE FINITE-DIFFERENCE OPTION, MIXELM=0) 
 = 0.1134    (WHEN MIN. R.F.=1)  AT K=   3, I=   2, J=  28
=======
 = 0.1871    (WHEN MIN. R.F.=1)  AT K=   3, I=   2, J=  31

 MAXIMUM STEPSIZE WHICH MEETS STABILITY CRITERION OF THE ADVECTION TERM
 (FOR PURE FINITE-DIFFERENCE OPTION, MIXELM=0) 
 = 0.1250    (WHEN MIN. R.F.=1)  AT K=   3, I=   2, J=  30
>>>>>>> Stashed changes


 TOTAL NUMBER OF POINT SOURCES/SINKS PRESENT IN THE FLOW MODEL =   240

 MAXIMUM STEPSIZE WHICH MEETS STABILITY CRITERION OF THE SINK & SOURCE TERM
 = 0.1000E+31(WHEN MIN. R.F.=1)  AT K=   0, I=   0, J=   0

 MAXIMUM STEPSIZE WHICH MEETS STABILITY CRITERION OF THE DISPERSION TERM
<<<<<<< Updated upstream
 = 0.6205E-02(WHEN MIN. R.F.=1)  AT K=   3, I=   2, J=  31
     1 CALLS TO GCG PACKAGE FOR TRANSPORT TIME STEP   4 IN FLOW TIME STEP  26 STRESS PERIOD   2
    17 TOTAL ITERATIONS
0WARNING: NUMERICAL OSCILLATION ENCOUNTERED
 ONE OR MORE CELL CONCENTRATIONS LESS THAN CRHOREF
 SMALLEST DENSITY =  0.100E+04
 AT CELL (I,J,K) = (   3,  48,  29)
=======
 = 0.6708E-02(WHEN MIN. R.F.=1)  AT K=   3, I=   2, J=  30
     1 CALLS TO GCG PACKAGE FOR TRANSPORT TIME STEP   2 IN FLOW TIME STEP  29 STRESS PERIOD   2
    18 TOTAL ITERATIONS
0WARNING: NUMERICAL OSCILLATION ENCOUNTERED
 ONE OR MORE CELL CONCENTRATIONS LESS THAN CRHOREF
 SMALLEST DENSITY =  0.100E+04
 AT CELL (I,J,K) = (   3,  59,  27)
>>>>>>> Stashed changes

 
 SOLVING FOR HEAD 
 FLOW MODEL IS TRANSIENT
 FLOW MODEL CONTAINS CONSTANT-HEAD CELLS


 MAXIMUM STEPSIZE DURING WHICH ANY PARTICLE CANNOT MOVE MORE THAN ONE CELL
<<<<<<< Updated upstream
 = 0.1635    (WHEN MIN. R.F.=1)  AT K=   3, I=   2, J=  29

 MAXIMUM STEPSIZE WHICH MEETS STABILITY CRITERION OF THE ADVECTION TERM
 (FOR PURE FINITE-DIFFERENCE OPTION, MIXELM=0) 
 = 0.1134    (WHEN MIN. R.F.=1)  AT K=   3, I=   2, J=  28
=======
 = 0.1871    (WHEN MIN. R.F.=1)  AT K=   3, I=   2, J=  31

 MAXIMUM STEPSIZE WHICH MEETS STABILITY CRITERION OF THE ADVECTION TERM
 (FOR PURE FINITE-DIFFERENCE OPTION, MIXELM=0) 
 = 0.1250    (WHEN MIN. R.F.=1)  AT K=   3, I=   2, J=  30
>>>>>>> Stashed changes


 TOTAL NUMBER OF POINT SOURCES/SINKS PRESENT IN THE FLOW MODEL =   240

 MAXIMUM STEPSIZE WHICH MEETS STABILITY CRITERION OF THE SINK & SOURCE TERM
 = 0.1000E+31(WHEN MIN. R.F.=1)  AT K=   0, I=   0, J=   0

 MAXIMUM STEPSIZE WHICH MEETS STABILITY CRITERION OF THE DISPERSION TERM
<<<<<<< Updated upstream
 = 0.6205E-02(WHEN MIN. R.F.=1)  AT K=   3, I=   2, J=  31
     1 CALLS TO GCG PACKAGE FOR TRANSPORT TIME STEP   5 IN FLOW TIME STEP  26 STRESS PERIOD   2
    17 TOTAL ITERATIONS
0WARNING: NUMERICAL OSCILLATION ENCOUNTERED
 ONE OR MORE CELL CONCENTRATIONS LESS THAN CRHOREF
 SMALLEST DENSITY =  0.100E+04
 AT CELL (I,J,K) = (   3,  48,  29)
=======
 = 0.6708E-02(WHEN MIN. R.F.=1)  AT K=   3, I=   2, J=  30
     1 CALLS TO GCG PACKAGE FOR TRANSPORT TIME STEP   3 IN FLOW TIME STEP  29 STRESS PERIOD   2
    18 TOTAL ITERATIONS
0WARNING: NUMERICAL OSCILLATION ENCOUNTERED
 ONE OR MORE CELL CONCENTRATIONS LESS THAN CRHOREF
 SMALLEST DENSITY =  0.100E+04
 AT CELL (I,J,K) = (   3,  59,  27)
>>>>>>> Stashed changes

 
 SOLVING FOR HEAD 
 FLOW MODEL IS TRANSIENT
 FLOW MODEL CONTAINS CONSTANT-HEAD CELLS


 MAXIMUM STEPSIZE DURING WHICH ANY PARTICLE CANNOT MOVE MORE THAN ONE CELL
<<<<<<< Updated upstream
 = 0.1635    (WHEN MIN. R.F.=1)  AT K=   3, I=   2, J=  29

 MAXIMUM STEPSIZE WHICH MEETS STABILITY CRITERION OF THE ADVECTION TERM
 (FOR PURE FINITE-DIFFERENCE OPTION, MIXELM=0) 
 = 0.1134    (WHEN MIN. R.F.=1)  AT K=   3, I=   2, J=  28
=======
 = 0.1871    (WHEN MIN. R.F.=1)  AT K=   3, I=   2, J=  31

 MAXIMUM STEPSIZE WHICH MEETS STABILITY CRITERION OF THE ADVECTION TERM
 (FOR PURE FINITE-DIFFERENCE OPTION, MIXELM=0) 
 = 0.1250    (WHEN MIN. R.F.=1)  AT K=   3, I=   2, J=  30
>>>>>>> Stashed changes


 TOTAL NUMBER OF POINT SOURCES/SINKS PRESENT IN THE FLOW MODEL =   240

 MAXIMUM STEPSIZE WHICH MEETS STABILITY CRITERION OF THE SINK & SOURCE TERM
 = 0.1000E+31(WHEN MIN. R.F.=1)  AT K=   0, I=   0, J=   0

 MAXIMUM STEPSIZE WHICH MEETS STABILITY CRITERION OF THE DISPERSION TERM
<<<<<<< Updated upstream
 = 0.6205E-02(WHEN MIN. R.F.=1)  AT K=   3, I=   2, J=  31
     1 CALLS TO GCG PACKAGE FOR TRANSPORT TIME STEP   6 IN FLOW TIME STEP  26 STRESS PERIOD   2
    17 TOTAL ITERATIONS
0WARNING: NUMERICAL OSCILLATION ENCOUNTERED
 ONE OR MORE CELL CONCENTRATIONS LESS THAN CRHOREF
 SMALLEST DENSITY =  0.100E+04
 AT CELL (I,J,K) = (   3,  48,  29)
=======
 = 0.6707E-02(WHEN MIN. R.F.=1)  AT K=   3, I=   2, J=  30
     1 CALLS TO GCG PACKAGE FOR TRANSPORT TIME STEP   4 IN FLOW TIME STEP  29 STRESS PERIOD   2
    18 TOTAL ITERATIONS
0WARNING: NUMERICAL OSCILLATION ENCOUNTERED
 ONE OR MORE CELL CONCENTRATIONS LESS THAN CRHOREF
 SMALLEST DENSITY =  0.100E+04
 AT CELL (I,J,K) = (   3,  59,  27)
>>>>>>> Stashed changes

 
 SOLVING FOR HEAD 
 FLOW MODEL IS TRANSIENT
 FLOW MODEL CONTAINS CONSTANT-HEAD CELLS


 MAXIMUM STEPSIZE DURING WHICH ANY PARTICLE CANNOT MOVE MORE THAN ONE CELL
<<<<<<< Updated upstream
 = 0.1635    (WHEN MIN. R.F.=1)  AT K=   3, I=   2, J=  29

 MAXIMUM STEPSIZE WHICH MEETS STABILITY CRITERION OF THE ADVECTION TERM
 (FOR PURE FINITE-DIFFERENCE OPTION, MIXELM=0) 
 = 0.1134    (WHEN MIN. R.F.=1)  AT K=   3, I=   2, J=  28
=======
 = 0.1871    (WHEN MIN. R.F.=1)  AT K=   3, I=   2, J=  31

 MAXIMUM STEPSIZE WHICH MEETS STABILITY CRITERION OF THE ADVECTION TERM
 (FOR PURE FINITE-DIFFERENCE OPTION, MIXELM=0) 
 = 0.1250    (WHEN MIN. R.F.=1)  AT K=   3, I=   2, J=  30
>>>>>>> Stashed changes


 TOTAL NUMBER OF POINT SOURCES/SINKS PRESENT IN THE FLOW MODEL =   240

 MAXIMUM STEPSIZE WHICH MEETS STABILITY CRITERION OF THE SINK & SOURCE TERM
 = 0.1000E+31(WHEN MIN. R.F.=1)  AT K=   0, I=   0, J=   0

 MAXIMUM STEPSIZE WHICH MEETS STABILITY CRITERION OF THE DISPERSION TERM
<<<<<<< Updated upstream
 = 0.6205E-02(WHEN MIN. R.F.=1)  AT K=   3, I=   2, J=  31
     1 CALLS TO GCG PACKAGE FOR TRANSPORT TIME STEP   7 IN FLOW TIME STEP  26 STRESS PERIOD   2
    17 TOTAL ITERATIONS
=======
 = 0.6707E-02(WHEN MIN. R.F.=1)  AT K=   3, I=   2, J=  30
     1 CALLS TO GCG PACKAGE FOR TRANSPORT TIME STEP   5 IN FLOW TIME STEP  29 STRESS PERIOD   2
    18 TOTAL ITERATIONS
0WARNING: NUMERICAL OSCILLATION ENCOUNTERED
 ONE OR MORE CELL CONCENTRATIONS LESS THAN CRHOREF
 SMALLEST DENSITY =  0.100E+04
 AT CELL (I,J,K) = (   3,  59,  27)

>>>>>>> Stashed changes
 
 SOLVING FOR HEAD 
 FLOW MODEL IS TRANSIENT
 FLOW MODEL CONTAINS CONSTANT-HEAD CELLS


 MAXIMUM STEPSIZE DURING WHICH ANY PARTICLE CANNOT MOVE MORE THAN ONE CELL
<<<<<<< Updated upstream
 = 0.1635    (WHEN MIN. R.F.=1)  AT K=   3, I=   2, J=  29

 MAXIMUM STEPSIZE WHICH MEETS STABILITY CRITERION OF THE ADVECTION TERM
 (FOR PURE FINITE-DIFFERENCE OPTION, MIXELM=0) 
 = 0.1134    (WHEN MIN. R.F.=1)  AT K=   3, I=   2, J=  28
=======
 = 0.1871    (WHEN MIN. R.F.=1)  AT K=   3, I=   2, J=  31

 MAXIMUM STEPSIZE WHICH MEETS STABILITY CRITERION OF THE ADVECTION TERM
 (FOR PURE FINITE-DIFFERENCE OPTION, MIXELM=0) 
 = 0.1250    (WHEN MIN. R.F.=1)  AT K=   3, I=   2, J=  30
>>>>>>> Stashed changes


 TOTAL NUMBER OF POINT SOURCES/SINKS PRESENT IN THE FLOW MODEL =   240

 MAXIMUM STEPSIZE WHICH MEETS STABILITY CRITERION OF THE SINK & SOURCE TERM
 = 0.1000E+31(WHEN MIN. R.F.=1)  AT K=   0, I=   0, J=   0

 MAXIMUM STEPSIZE WHICH MEETS STABILITY CRITERION OF THE DISPERSION TERM
<<<<<<< Updated upstream
 = 0.6205E-02(WHEN MIN. R.F.=1)  AT K=   3, I=   2, J=  31
     1 CALLS TO GCG PACKAGE FOR TRANSPORT TIME STEP   8 IN FLOW TIME STEP  26 STRESS PERIOD   2
    17 TOTAL ITERATIONS
=======
 = 0.6707E-02(WHEN MIN. R.F.=1)  AT K=   3, I=   2, J=  30
     1 CALLS TO GCG PACKAGE FOR TRANSPORT TIME STEP   6 IN FLOW TIME STEP  29 STRESS PERIOD   2
    18 TOTAL ITERATIONS
0WARNING: NUMERICAL OSCILLATION ENCOUNTERED
 ONE OR MORE CELL CONCENTRATIONS LESS THAN CRHOREF
 SMALLEST DENSITY =  0.100E+04
 AT CELL (I,J,K) = (   3,  59,  27)

>>>>>>> Stashed changes
 
 SOLVING FOR HEAD 
 FLOW MODEL IS TRANSIENT
 FLOW MODEL CONTAINS CONSTANT-HEAD CELLS


 MAXIMUM STEPSIZE DURING WHICH ANY PARTICLE CANNOT MOVE MORE THAN ONE CELL
<<<<<<< Updated upstream
 = 0.1635    (WHEN MIN. R.F.=1)  AT K=   3, I=   2, J=  29

 MAXIMUM STEPSIZE WHICH MEETS STABILITY CRITERION OF THE ADVECTION TERM
 (FOR PURE FINITE-DIFFERENCE OPTION, MIXELM=0) 
 = 0.1134    (WHEN MIN. R.F.=1)  AT K=   3, I=   2, J=  28
=======
 = 0.1871    (WHEN MIN. R.F.=1)  AT K=   3, I=   2, J=  31

 MAXIMUM STEPSIZE WHICH MEETS STABILITY CRITERION OF THE ADVECTION TERM
 (FOR PURE FINITE-DIFFERENCE OPTION, MIXELM=0) 
 = 0.1250    (WHEN MIN. R.F.=1)  AT K=   3, I=   2, J=  30
>>>>>>> Stashed changes


 TOTAL NUMBER OF POINT SOURCES/SINKS PRESENT IN THE FLOW MODEL =   240

 MAXIMUM STEPSIZE WHICH MEETS STABILITY CRITERION OF THE SINK & SOURCE TERM
 = 0.1000E+31(WHEN MIN. R.F.=1)  AT K=   0, I=   0, J=   0

 MAXIMUM STEPSIZE WHICH MEETS STABILITY CRITERION OF THE DISPERSION TERM
<<<<<<< Updated upstream
 = 0.6205E-02(WHEN MIN. R.F.=1)  AT K=   3, I=   2, J=  31
     1 CALLS TO GCG PACKAGE FOR TRANSPORT TIME STEP   9 IN FLOW TIME STEP  26 STRESS PERIOD   2
     8 TOTAL ITERATIONS
  MAXIMUM CONCENTRATION CHANGES FOR EACH ITERATION:
  MAX. CHANGE LAYER,ROW,COL MAX. CHANGE LAYER,ROW,COL MAX. CHANGE LAYER,ROW,COL MAX. CHANGE LAYER,ROW,COL MAX. CHANGE LAYER,ROW,COL
 ------------------------------------------------------------------------------------------------------------------------------------
   0.3245E-03 ( 12,  3, 55)  0.3087E-04 (  6,  1, 56)  0.5624E-05 (  6,  1, 54)  0.2256E-05 (  3,  3, 31)  0.9453E-06 (  3,  3, 30)
   0.4185E-06 (  3,  3, 31)  0.1240E-06 (  3,  3, 30)  0.3932E-07 (  3,  3, 29)


                                          ================================================
                                                         FROM TIME =   27.000     TO    28.000    
=======
 = 0.6707E-02(WHEN MIN. R.F.=1)  AT K=   3, I=   2, J=  30
     1 CALLS TO GCG PACKAGE FOR TRANSPORT TIME STEP   7 IN FLOW TIME STEP  29 STRESS PERIOD   2
    18 TOTAL ITERATIONS
0WARNING: NUMERICAL OSCILLATION ENCOUNTERED
 ONE OR MORE CELL CONCENTRATIONS LESS THAN CRHOREF
 SMALLEST DENSITY =  0.100E+04
 AT CELL (I,J,K) = (   3,  59,  27)
>>>>>>> Stashed changes

 
 SOLVING FOR HEAD 
 FLOW MODEL IS TRANSIENT
 FLOW MODEL CONTAINS CONSTANT-HEAD CELLS


 MAXIMUM STEPSIZE DURING WHICH ANY PARTICLE CANNOT MOVE MORE THAN ONE CELL
<<<<<<< Updated upstream
 = 0.1635    (WHEN MIN. R.F.=1)  AT K=   3, I=   2, J=  29

 MAXIMUM STEPSIZE WHICH MEETS STABILITY CRITERION OF THE ADVECTION TERM
 (FOR PURE FINITE-DIFFERENCE OPTION, MIXELM=0) 
 = 0.1134    (WHEN MIN. R.F.=1)  AT K=   3, I=   2, J=  28
=======
 = 0.1871    (WHEN MIN. R.F.=1)  AT K=   3, I=   2, J=  31

 MAXIMUM STEPSIZE WHICH MEETS STABILITY CRITERION OF THE ADVECTION TERM
 (FOR PURE FINITE-DIFFERENCE OPTION, MIXELM=0) 
 = 0.1250    (WHEN MIN. R.F.=1)  AT K=   3, I=   2, J=  30
>>>>>>> Stashed changes


 TOTAL NUMBER OF POINT SOURCES/SINKS PRESENT IN THE FLOW MODEL =   240

 MAXIMUM STEPSIZE WHICH MEETS STABILITY CRITERION OF THE SINK & SOURCE TERM
 = 0.1000E+31(WHEN MIN. R.F.=1)  AT K=   0, I=   0, J=   0

 MAXIMUM STEPSIZE WHICH MEETS STABILITY CRITERION OF THE DISPERSION TERM
<<<<<<< Updated upstream
 = 0.6205E-02(WHEN MIN. R.F.=1)  AT K=   3, I=   2, J=  31


     1 CALLS TO GCG PACKAGE FOR TRANSPORT TIME STEP   1 IN FLOW TIME STEP  27 STRESS PERIOD   2
    17 TOTAL ITERATIONS

 NO OUTPUT CONTROL FOR STRESS PERIOD    2   TIME STEP  27
 
 SOLVING FOR HEAD 
 FLOW MODEL IS TRANSIENT
 FLOW MODEL CONTAINS CONSTANT-HEAD CELLS


 MAXIMUM STEPSIZE DURING WHICH ANY PARTICLE CANNOT MOVE MORE THAN ONE CELL
 = 0.1635    (WHEN MIN. R.F.=1)  AT K=   3, I=   2, J=  29

 MAXIMUM STEPSIZE WHICH MEETS STABILITY CRITERION OF THE ADVECTION TERM
 (FOR PURE FINITE-DIFFERENCE OPTION, MIXELM=0) 
 = 0.1134    (WHEN MIN. R.F.=1)  AT K=   3, I=   2, J=  28


 TOTAL NUMBER OF POINT SOURCES/SINKS PRESENT IN THE FLOW MODEL =   240

 MAXIMUM STEPSIZE WHICH MEETS STABILITY CRITERION OF THE SINK & SOURCE TERM
 = 0.1000E+31(WHEN MIN. R.F.=1)  AT K=   0, I=   0, J=   0

 MAXIMUM STEPSIZE WHICH MEETS STABILITY CRITERION OF THE DISPERSION TERM
 = 0.6205E-02(WHEN MIN. R.F.=1)  AT K=   3, I=   2, J=  31
     1 CALLS TO GCG PACKAGE FOR TRANSPORT TIME STEP   2 IN FLOW TIME STEP  27 STRESS PERIOD   2
    17 TOTAL ITERATIONS
 
 SOLVING FOR HEAD 
 FLOW MODEL IS TRANSIENT
 FLOW MODEL CONTAINS CONSTANT-HEAD CELLS


 MAXIMUM STEPSIZE DURING WHICH ANY PARTICLE CANNOT MOVE MORE THAN ONE CELL
 = 0.1635    (WHEN MIN. R.F.=1)  AT K=   3, I=   2, J=  29

 MAXIMUM STEPSIZE WHICH MEETS STABILITY CRITERION OF THE ADVECTION TERM
 (FOR PURE FINITE-DIFFERENCE OPTION, MIXELM=0) 
 = 0.1134    (WHEN MIN. R.F.=1)  AT K=   3, I=   2, J=  28


 TOTAL NUMBER OF POINT SOURCES/SINKS PRESENT IN THE FLOW MODEL =   240

 MAXIMUM STEPSIZE WHICH MEETS STABILITY CRITERION OF THE SINK & SOURCE TERM
 = 0.1000E+31(WHEN MIN. R.F.=1)  AT K=   0, I=   0, J=   0

 MAXIMUM STEPSIZE WHICH MEETS STABILITY CRITERION OF THE DISPERSION TERM
 = 0.6205E-02(WHEN MIN. R.F.=1)  AT K=   3, I=   2, J=  31
     1 CALLS TO GCG PACKAGE FOR TRANSPORT TIME STEP   3 IN FLOW TIME STEP  27 STRESS PERIOD   2
    17 TOTAL ITERATIONS
 
 SOLVING FOR HEAD 
 FLOW MODEL IS TRANSIENT
 FLOW MODEL CONTAINS CONSTANT-HEAD CELLS


 MAXIMUM STEPSIZE DURING WHICH ANY PARTICLE CANNOT MOVE MORE THAN ONE CELL
 = 0.1635    (WHEN MIN. R.F.=1)  AT K=   3, I=   2, J=  29

 MAXIMUM STEPSIZE WHICH MEETS STABILITY CRITERION OF THE ADVECTION TERM
 (FOR PURE FINITE-DIFFERENCE OPTION, MIXELM=0) 
 = 0.1134    (WHEN MIN. R.F.=1)  AT K=   3, I=   2, J=  28


 TOTAL NUMBER OF POINT SOURCES/SINKS PRESENT IN THE FLOW MODEL =   240

 MAXIMUM STEPSIZE WHICH MEETS STABILITY CRITERION OF THE SINK & SOURCE TERM
 = 0.1000E+31(WHEN MIN. R.F.=1)  AT K=   0, I=   0, J=   0

 MAXIMUM STEPSIZE WHICH MEETS STABILITY CRITERION OF THE DISPERSION TERM
 = 0.6205E-02(WHEN MIN. R.F.=1)  AT K=   3, I=   2, J=  31
     1 CALLS TO GCG PACKAGE FOR TRANSPORT TIME STEP   4 IN FLOW TIME STEP  27 STRESS PERIOD   2
    17 TOTAL ITERATIONS
 
 SOLVING FOR HEAD 
 FLOW MODEL IS TRANSIENT
 FLOW MODEL CONTAINS CONSTANT-HEAD CELLS


 MAXIMUM STEPSIZE DURING WHICH ANY PARTICLE CANNOT MOVE MORE THAN ONE CELL
 = 0.1635    (WHEN MIN. R.F.=1)  AT K=   3, I=   2, J=  29

 MAXIMUM STEPSIZE WHICH MEETS STABILITY CRITERION OF THE ADVECTION TERM
 (FOR PURE FINITE-DIFFERENCE OPTION, MIXELM=0) 
 = 0.1134    (WHEN MIN. R.F.=1)  AT K=   3, I=   2, J=  28


 TOTAL NUMBER OF POINT SOURCES/SINKS PRESENT IN THE FLOW MODEL =   240

 MAXIMUM STEPSIZE WHICH MEETS STABILITY CRITERION OF THE SINK & SOURCE TERM
 = 0.1000E+31(WHEN MIN. R.F.=1)  AT K=   0, I=   0, J=   0

 MAXIMUM STEPSIZE WHICH MEETS STABILITY CRITERION OF THE DISPERSION TERM
 = 0.6205E-02(WHEN MIN. R.F.=1)  AT K=   3, I=   2, J=  31
     1 CALLS TO GCG PACKAGE FOR TRANSPORT TIME STEP   5 IN FLOW TIME STEP  27 STRESS PERIOD   2
    17 TOTAL ITERATIONS
 
 SOLVING FOR HEAD 
 FLOW MODEL IS TRANSIENT
 FLOW MODEL CONTAINS CONSTANT-HEAD CELLS


 MAXIMUM STEPSIZE DURING WHICH ANY PARTICLE CANNOT MOVE MORE THAN ONE CELL
 = 0.1635    (WHEN MIN. R.F.=1)  AT K=   3, I=   2, J=  29

 MAXIMUM STEPSIZE WHICH MEETS STABILITY CRITERION OF THE ADVECTION TERM
 (FOR PURE FINITE-DIFFERENCE OPTION, MIXELM=0) 
 = 0.1134    (WHEN MIN. R.F.=1)  AT K=   3, I=   2, J=  28


 TOTAL NUMBER OF POINT SOURCES/SINKS PRESENT IN THE FLOW MODEL =   240

 MAXIMUM STEPSIZE WHICH MEETS STABILITY CRITERION OF THE SINK & SOURCE TERM
 = 0.1000E+31(WHEN MIN. R.F.=1)  AT K=   0, I=   0, J=   0

 MAXIMUM STEPSIZE WHICH MEETS STABILITY CRITERION OF THE DISPERSION TERM
 = 0.6205E-02(WHEN MIN. R.F.=1)  AT K=   3, I=   2, J=  31
     1 CALLS TO GCG PACKAGE FOR TRANSPORT TIME STEP   6 IN FLOW TIME STEP  27 STRESS PERIOD   2
    17 TOTAL ITERATIONS
 
 SOLVING FOR HEAD 
 FLOW MODEL IS TRANSIENT
 FLOW MODEL CONTAINS CONSTANT-HEAD CELLS


 MAXIMUM STEPSIZE DURING WHICH ANY PARTICLE CANNOT MOVE MORE THAN ONE CELL
 = 0.1635    (WHEN MIN. R.F.=1)  AT K=   3, I=   2, J=  29

 MAXIMUM STEPSIZE WHICH MEETS STABILITY CRITERION OF THE ADVECTION TERM
 (FOR PURE FINITE-DIFFERENCE OPTION, MIXELM=0) 
 = 0.1134    (WHEN MIN. R.F.=1)  AT K=   3, I=   2, J=  28


 TOTAL NUMBER OF POINT SOURCES/SINKS PRESENT IN THE FLOW MODEL =   240

 MAXIMUM STEPSIZE WHICH MEETS STABILITY CRITERION OF THE SINK & SOURCE TERM
 = 0.1000E+31(WHEN MIN. R.F.=1)  AT K=   0, I=   0, J=   0

 MAXIMUM STEPSIZE WHICH MEETS STABILITY CRITERION OF THE DISPERSION TERM
 = 0.6205E-02(WHEN MIN. R.F.=1)  AT K=   3, I=   2, J=  31
     1 CALLS TO GCG PACKAGE FOR TRANSPORT TIME STEP   7 IN FLOW TIME STEP  27 STRESS PERIOD   2
    17 TOTAL ITERATIONS
 
 SOLVING FOR HEAD 
 FLOW MODEL IS TRANSIENT
 FLOW MODEL CONTAINS CONSTANT-HEAD CELLS


 MAXIMUM STEPSIZE DURING WHICH ANY PARTICLE CANNOT MOVE MORE THAN ONE CELL
 = 0.1635    (WHEN MIN. R.F.=1)  AT K=   3, I=   2, J=  29

 MAXIMUM STEPSIZE WHICH MEETS STABILITY CRITERION OF THE ADVECTION TERM
 (FOR PURE FINITE-DIFFERENCE OPTION, MIXELM=0) 
 = 0.1134    (WHEN MIN. R.F.=1)  AT K=   3, I=   2, J=  28


 TOTAL NUMBER OF POINT SOURCES/SINKS PRESENT IN THE FLOW MODEL =   240

 MAXIMUM STEPSIZE WHICH MEETS STABILITY CRITERION OF THE SINK & SOURCE TERM
 = 0.1000E+31(WHEN MIN. R.F.=1)  AT K=   0, I=   0, J=   0

 MAXIMUM STEPSIZE WHICH MEETS STABILITY CRITERION OF THE DISPERSION TERM
 = 0.6205E-02(WHEN MIN. R.F.=1)  AT K=   3, I=   2, J=  31
     1 CALLS TO GCG PACKAGE FOR TRANSPORT TIME STEP   8 IN FLOW TIME STEP  27 STRESS PERIOD   2
    17 TOTAL ITERATIONS
 
 SOLVING FOR HEAD 
 FLOW MODEL IS TRANSIENT
 FLOW MODEL CONTAINS CONSTANT-HEAD CELLS


 MAXIMUM STEPSIZE DURING WHICH ANY PARTICLE CANNOT MOVE MORE THAN ONE CELL
 = 0.1635    (WHEN MIN. R.F.=1)  AT K=   3, I=   2, J=  29

 MAXIMUM STEPSIZE WHICH MEETS STABILITY CRITERION OF THE ADVECTION TERM
 (FOR PURE FINITE-DIFFERENCE OPTION, MIXELM=0) 
 = 0.1134    (WHEN MIN. R.F.=1)  AT K=   3, I=   2, J=  28


 TOTAL NUMBER OF POINT SOURCES/SINKS PRESENT IN THE FLOW MODEL =   240

 MAXIMUM STEPSIZE WHICH MEETS STABILITY CRITERION OF THE SINK & SOURCE TERM
 = 0.1000E+31(WHEN MIN. R.F.=1)  AT K=   0, I=   0, J=   0

 MAXIMUM STEPSIZE WHICH MEETS STABILITY CRITERION OF THE DISPERSION TERM
 = 0.6205E-02(WHEN MIN. R.F.=1)  AT K=   3, I=   2, J=  31
     1 CALLS TO GCG PACKAGE FOR TRANSPORT TIME STEP   9 IN FLOW TIME STEP  27 STRESS PERIOD   2
     8 TOTAL ITERATIONS
  MAXIMUM CONCENTRATION CHANGES FOR EACH ITERATION:
  MAX. CHANGE LAYER,ROW,COL MAX. CHANGE LAYER,ROW,COL MAX. CHANGE LAYER,ROW,COL MAX. CHANGE LAYER,ROW,COL MAX. CHANGE LAYER,ROW,COL
 ------------------------------------------------------------------------------------------------------------------------------------
   0.3114E-03 ( 13,  3, 52)  0.2902E-04 (  6,  1, 56)  0.5376E-05 (  6,  1, 54)  0.2110E-05 (  3,  3, 31)  0.8872E-06 (  3,  3, 30)
   0.3917E-06 (  3,  3, 31)  0.1172E-06 (  3,  3, 30)  0.3713E-07 (  3,  3, 29)


                                          ================================================
                                                         FROM TIME =   28.000     TO    29.000    

 
 SOLVING FOR HEAD 
 FLOW MODEL IS TRANSIENT
 FLOW MODEL CONTAINS CONSTANT-HEAD CELLS


 MAXIMUM STEPSIZE DURING WHICH ANY PARTICLE CANNOT MOVE MORE THAN ONE CELL
 = 0.1635    (WHEN MIN. R.F.=1)  AT K=   3, I=   2, J=  29

 MAXIMUM STEPSIZE WHICH MEETS STABILITY CRITERION OF THE ADVECTION TERM
 (FOR PURE FINITE-DIFFERENCE OPTION, MIXELM=0) 
 = 0.1134    (WHEN MIN. R.F.=1)  AT K=   3, I=   2, J=  28


 TOTAL NUMBER OF POINT SOURCES/SINKS PRESENT IN THE FLOW MODEL =   240

 MAXIMUM STEPSIZE WHICH MEETS STABILITY CRITERION OF THE SINK & SOURCE TERM
 = 0.1000E+31(WHEN MIN. R.F.=1)  AT K=   0, I=   0, J=   0

 MAXIMUM STEPSIZE WHICH MEETS STABILITY CRITERION OF THE DISPERSION TERM
 = 0.6205E-02(WHEN MIN. R.F.=1)  AT K=   3, I=   2, J=  31


     1 CALLS TO GCG PACKAGE FOR TRANSPORT TIME STEP   1 IN FLOW TIME STEP  28 STRESS PERIOD   2
    17 TOTAL ITERATIONS

 NO OUTPUT CONTROL FOR STRESS PERIOD    2   TIME STEP  28
 
 SOLVING FOR HEAD 
 FLOW MODEL IS TRANSIENT
 FLOW MODEL CONTAINS CONSTANT-HEAD CELLS


 MAXIMUM STEPSIZE DURING WHICH ANY PARTICLE CANNOT MOVE MORE THAN ONE CELL
 = 0.1635    (WHEN MIN. R.F.=1)  AT K=   3, I=   2, J=  29

 MAXIMUM STEPSIZE WHICH MEETS STABILITY CRITERION OF THE ADVECTION TERM
 (FOR PURE FINITE-DIFFERENCE OPTION, MIXELM=0) 
 = 0.1134    (WHEN MIN. R.F.=1)  AT K=   3, I=   2, J=  28


 TOTAL NUMBER OF POINT SOURCES/SINKS PRESENT IN THE FLOW MODEL =   240

 MAXIMUM STEPSIZE WHICH MEETS STABILITY CRITERION OF THE SINK & SOURCE TERM
 = 0.1000E+31(WHEN MIN. R.F.=1)  AT K=   0, I=   0, J=   0

 MAXIMUM STEPSIZE WHICH MEETS STABILITY CRITERION OF THE DISPERSION TERM
 = 0.6205E-02(WHEN MIN. R.F.=1)  AT K=   3, I=   2, J=  31
     1 CALLS TO GCG PACKAGE FOR TRANSPORT TIME STEP   2 IN FLOW TIME STEP  28 STRESS PERIOD   2
    17 TOTAL ITERATIONS
 
 SOLVING FOR HEAD 
 FLOW MODEL IS TRANSIENT
 FLOW MODEL CONTAINS CONSTANT-HEAD CELLS


 MAXIMUM STEPSIZE DURING WHICH ANY PARTICLE CANNOT MOVE MORE THAN ONE CELL
 = 0.1635    (WHEN MIN. R.F.=1)  AT K=   3, I=   2, J=  29

 MAXIMUM STEPSIZE WHICH MEETS STABILITY CRITERION OF THE ADVECTION TERM
 (FOR PURE FINITE-DIFFERENCE OPTION, MIXELM=0) 
 = 0.1134    (WHEN MIN. R.F.=1)  AT K=   3, I=   2, J=  28


 TOTAL NUMBER OF POINT SOURCES/SINKS PRESENT IN THE FLOW MODEL =   240

 MAXIMUM STEPSIZE WHICH MEETS STABILITY CRITERION OF THE SINK & SOURCE TERM
 = 0.1000E+31(WHEN MIN. R.F.=1)  AT K=   0, I=   0, J=   0

 MAXIMUM STEPSIZE WHICH MEETS STABILITY CRITERION OF THE DISPERSION TERM
 = 0.6204E-02(WHEN MIN. R.F.=1)  AT K=   3, I=   2, J=  31
     1 CALLS TO GCG PACKAGE FOR TRANSPORT TIME STEP   3 IN FLOW TIME STEP  28 STRESS PERIOD   2
    17 TOTAL ITERATIONS
 
 SOLVING FOR HEAD 
 FLOW MODEL IS TRANSIENT
 FLOW MODEL CONTAINS CONSTANT-HEAD CELLS


 MAXIMUM STEPSIZE DURING WHICH ANY PARTICLE CANNOT MOVE MORE THAN ONE CELL
 = 0.1635    (WHEN MIN. R.F.=1)  AT K=   3, I=   2, J=  29

 MAXIMUM STEPSIZE WHICH MEETS STABILITY CRITERION OF THE ADVECTION TERM
 (FOR PURE FINITE-DIFFERENCE OPTION, MIXELM=0) 
 = 0.1134    (WHEN MIN. R.F.=1)  AT K=   3, I=   2, J=  28


 TOTAL NUMBER OF POINT SOURCES/SINKS PRESENT IN THE FLOW MODEL =   240

 MAXIMUM STEPSIZE WHICH MEETS STABILITY CRITERION OF THE SINK & SOURCE TERM
 = 0.1000E+31(WHEN MIN. R.F.=1)  AT K=   0, I=   0, J=   0

 MAXIMUM STEPSIZE WHICH MEETS STABILITY CRITERION OF THE DISPERSION TERM
 = 0.6204E-02(WHEN MIN. R.F.=1)  AT K=   3, I=   2, J=  31
     1 CALLS TO GCG PACKAGE FOR TRANSPORT TIME STEP   4 IN FLOW TIME STEP  28 STRESS PERIOD   2
    17 TOTAL ITERATIONS
 
 SOLVING FOR HEAD 
 FLOW MODEL IS TRANSIENT
 FLOW MODEL CONTAINS CONSTANT-HEAD CELLS


 MAXIMUM STEPSIZE DURING WHICH ANY PARTICLE CANNOT MOVE MORE THAN ONE CELL
 = 0.1635    (WHEN MIN. R.F.=1)  AT K=   3, I=   2, J=  29

 MAXIMUM STEPSIZE WHICH MEETS STABILITY CRITERION OF THE ADVECTION TERM
 (FOR PURE FINITE-DIFFERENCE OPTION, MIXELM=0) 
 = 0.1134    (WHEN MIN. R.F.=1)  AT K=   3, I=   2, J=  28


 TOTAL NUMBER OF POINT SOURCES/SINKS PRESENT IN THE FLOW MODEL =   240

 MAXIMUM STEPSIZE WHICH MEETS STABILITY CRITERION OF THE SINK & SOURCE TERM
 = 0.1000E+31(WHEN MIN. R.F.=1)  AT K=   0, I=   0, J=   0

 MAXIMUM STEPSIZE WHICH MEETS STABILITY CRITERION OF THE DISPERSION TERM
 = 0.6204E-02(WHEN MIN. R.F.=1)  AT K=   3, I=   2, J=  31
     1 CALLS TO GCG PACKAGE FOR TRANSPORT TIME STEP   5 IN FLOW TIME STEP  28 STRESS PERIOD   2
    17 TOTAL ITERATIONS
 
 SOLVING FOR HEAD 
 FLOW MODEL IS TRANSIENT
 FLOW MODEL CONTAINS CONSTANT-HEAD CELLS


 MAXIMUM STEPSIZE DURING WHICH ANY PARTICLE CANNOT MOVE MORE THAN ONE CELL
 = 0.1635    (WHEN MIN. R.F.=1)  AT K=   3, I=   2, J=  29

 MAXIMUM STEPSIZE WHICH MEETS STABILITY CRITERION OF THE ADVECTION TERM
 (FOR PURE FINITE-DIFFERENCE OPTION, MIXELM=0) 
 = 0.1134    (WHEN MIN. R.F.=1)  AT K=   3, I=   2, J=  28


 TOTAL NUMBER OF POINT SOURCES/SINKS PRESENT IN THE FLOW MODEL =   240

 MAXIMUM STEPSIZE WHICH MEETS STABILITY CRITERION OF THE SINK & SOURCE TERM
 = 0.1000E+31(WHEN MIN. R.F.=1)  AT K=   0, I=   0, J=   0

 MAXIMUM STEPSIZE WHICH MEETS STABILITY CRITERION OF THE DISPERSION TERM
 = 0.6204E-02(WHEN MIN. R.F.=1)  AT K=   3, I=   2, J=  31
     1 CALLS TO GCG PACKAGE FOR TRANSPORT TIME STEP   6 IN FLOW TIME STEP  28 STRESS PERIOD   2
    17 TOTAL ITERATIONS
 
 SOLVING FOR HEAD 
 FLOW MODEL IS TRANSIENT
 FLOW MODEL CONTAINS CONSTANT-HEAD CELLS


 MAXIMUM STEPSIZE DURING WHICH ANY PARTICLE CANNOT MOVE MORE THAN ONE CELL
 = 0.1635    (WHEN MIN. R.F.=1)  AT K=   3, I=   2, J=  29

 MAXIMUM STEPSIZE WHICH MEETS STABILITY CRITERION OF THE ADVECTION TERM
 (FOR PURE FINITE-DIFFERENCE OPTION, MIXELM=0) 
 = 0.1134    (WHEN MIN. R.F.=1)  AT K=   3, I=   2, J=  28


 TOTAL NUMBER OF POINT SOURCES/SINKS PRESENT IN THE FLOW MODEL =   240

 MAXIMUM STEPSIZE WHICH MEETS STABILITY CRITERION OF THE SINK & SOURCE TERM
 = 0.1000E+31(WHEN MIN. R.F.=1)  AT K=   0, I=   0, J=   0

 MAXIMUM STEPSIZE WHICH MEETS STABILITY CRITERION OF THE DISPERSION TERM
 = 0.6204E-02(WHEN MIN. R.F.=1)  AT K=   3, I=   2, J=  31
     1 CALLS TO GCG PACKAGE FOR TRANSPORT TIME STEP   7 IN FLOW TIME STEP  28 STRESS PERIOD   2
    17 TOTAL ITERATIONS
 
 SOLVING FOR HEAD 
 FLOW MODEL IS TRANSIENT
 FLOW MODEL CONTAINS CONSTANT-HEAD CELLS


 MAXIMUM STEPSIZE DURING WHICH ANY PARTICLE CANNOT MOVE MORE THAN ONE CELL
 = 0.1635    (WHEN MIN. R.F.=1)  AT K=   3, I=   2, J=  29

 MAXIMUM STEPSIZE WHICH MEETS STABILITY CRITERION OF THE ADVECTION TERM
 (FOR PURE FINITE-DIFFERENCE OPTION, MIXELM=0) 
 = 0.1133    (WHEN MIN. R.F.=1)  AT K=   3, I=   2, J=  28


 TOTAL NUMBER OF POINT SOURCES/SINKS PRESENT IN THE FLOW MODEL =   240

 MAXIMUM STEPSIZE WHICH MEETS STABILITY CRITERION OF THE SINK & SOURCE TERM
 = 0.1000E+31(WHEN MIN. R.F.=1)  AT K=   0, I=   0, J=   0

 MAXIMUM STEPSIZE WHICH MEETS STABILITY CRITERION OF THE DISPERSION TERM
 = 0.6204E-02(WHEN MIN. R.F.=1)  AT K=   3, I=   2, J=  31
     1 CALLS TO GCG PACKAGE FOR TRANSPORT TIME STEP   8 IN FLOW TIME STEP  28 STRESS PERIOD   2
    17 TOTAL ITERATIONS
 
 SOLVING FOR HEAD 
 FLOW MODEL IS TRANSIENT
 FLOW MODEL CONTAINS CONSTANT-HEAD CELLS


 MAXIMUM STEPSIZE DURING WHICH ANY PARTICLE CANNOT MOVE MORE THAN ONE CELL
 = 0.1635    (WHEN MIN. R.F.=1)  AT K=   3, I=   2, J=  29

 MAXIMUM STEPSIZE WHICH MEETS STABILITY CRITERION OF THE ADVECTION TERM
 (FOR PURE FINITE-DIFFERENCE OPTION, MIXELM=0) 
 = 0.1133    (WHEN MIN. R.F.=1)  AT K=   3, I=   2, J=  28


 TOTAL NUMBER OF POINT SOURCES/SINKS PRESENT IN THE FLOW MODEL =   240

 MAXIMUM STEPSIZE WHICH MEETS STABILITY CRITERION OF THE SINK & SOURCE TERM
 = 0.1000E+31(WHEN MIN. R.F.=1)  AT K=   0, I=   0, J=   0

 MAXIMUM STEPSIZE WHICH MEETS STABILITY CRITERION OF THE DISPERSION TERM
 = 0.6204E-02(WHEN MIN. R.F.=1)  AT K=   3, I=   2, J=  31
     1 CALLS TO GCG PACKAGE FOR TRANSPORT TIME STEP   9 IN FLOW TIME STEP  28 STRESS PERIOD   2
     8 TOTAL ITERATIONS
  MAXIMUM CONCENTRATION CHANGES FOR EACH ITERATION:
  MAX. CHANGE LAYER,ROW,COL MAX. CHANGE LAYER,ROW,COL MAX. CHANGE LAYER,ROW,COL MAX. CHANGE LAYER,ROW,COL MAX. CHANGE LAYER,ROW,COL
 ------------------------------------------------------------------------------------------------------------------------------------
   0.3039E-03 ( 13,  3, 52)  0.2732E-04 (  6,  1, 56)  0.5140E-05 (  6,  1, 54)  0.1977E-05 (  3,  3, 31)  0.8343E-06 (  3,  3, 30)
   0.3673E-06 (  3,  3, 31)  0.1110E-06 (  3,  3, 30)  0.3512E-07 (  3,  3, 29)


                                          ================================================
                                                         FROM TIME =   29.000     TO    30.000    

 
 SOLVING FOR HEAD 
 FLOW MODEL IS TRANSIENT
 FLOW MODEL CONTAINS CONSTANT-HEAD CELLS


 MAXIMUM STEPSIZE DURING WHICH ANY PARTICLE CANNOT MOVE MORE THAN ONE CELL
 = 0.1635    (WHEN MIN. R.F.=1)  AT K=   3, I=   2, J=  29

 MAXIMUM STEPSIZE WHICH MEETS STABILITY CRITERION OF THE ADVECTION TERM
 (FOR PURE FINITE-DIFFERENCE OPTION, MIXELM=0) 
 = 0.1133    (WHEN MIN. R.F.=1)  AT K=   3, I=   2, J=  28


 TOTAL NUMBER OF POINT SOURCES/SINKS PRESENT IN THE FLOW MODEL =   240

 MAXIMUM STEPSIZE WHICH MEETS STABILITY CRITERION OF THE SINK & SOURCE TERM
 = 0.1000E+31(WHEN MIN. R.F.=1)  AT K=   0, I=   0, J=   0

 MAXIMUM STEPSIZE WHICH MEETS STABILITY CRITERION OF THE DISPERSION TERM
 = 0.6204E-02(WHEN MIN. R.F.=1)  AT K=   3, I=   2, J=  31


     1 CALLS TO GCG PACKAGE FOR TRANSPORT TIME STEP   1 IN FLOW TIME STEP  29 STRESS PERIOD   2
    17 TOTAL ITERATIONS

 NO OUTPUT CONTROL FOR STRESS PERIOD    2   TIME STEP  29
 
 SOLVING FOR HEAD 
 FLOW MODEL IS TRANSIENT
 FLOW MODEL CONTAINS CONSTANT-HEAD CELLS


 MAXIMUM STEPSIZE DURING WHICH ANY PARTICLE CANNOT MOVE MORE THAN ONE CELL
 = 0.1635    (WHEN MIN. R.F.=1)  AT K=   3, I=   2, J=  29

 MAXIMUM STEPSIZE WHICH MEETS STABILITY CRITERION OF THE ADVECTION TERM
 (FOR PURE FINITE-DIFFERENCE OPTION, MIXELM=0) 
 = 0.1133    (WHEN MIN. R.F.=1)  AT K=   3, I=   2, J=  28


 TOTAL NUMBER OF POINT SOURCES/SINKS PRESENT IN THE FLOW MODEL =   240

 MAXIMUM STEPSIZE WHICH MEETS STABILITY CRITERION OF THE SINK & SOURCE TERM
 = 0.1000E+31(WHEN MIN. R.F.=1)  AT K=   0, I=   0, J=   0

 MAXIMUM STEPSIZE WHICH MEETS STABILITY CRITERION OF THE DISPERSION TERM
 = 0.6204E-02(WHEN MIN. R.F.=1)  AT K=   3, I=   2, J=  31
     1 CALLS TO GCG PACKAGE FOR TRANSPORT TIME STEP   2 IN FLOW TIME STEP  29 STRESS PERIOD   2
    17 TOTAL ITERATIONS
 
 SOLVING FOR HEAD 
 FLOW MODEL IS TRANSIENT
 FLOW MODEL CONTAINS CONSTANT-HEAD CELLS


 MAXIMUM STEPSIZE DURING WHICH ANY PARTICLE CANNOT MOVE MORE THAN ONE CELL
 = 0.1635    (WHEN MIN. R.F.=1)  AT K=   3, I=   2, J=  29

 MAXIMUM STEPSIZE WHICH MEETS STABILITY CRITERION OF THE ADVECTION TERM
 (FOR PURE FINITE-DIFFERENCE OPTION, MIXELM=0) 
 = 0.1133    (WHEN MIN. R.F.=1)  AT K=   3, I=   2, J=  28


 TOTAL NUMBER OF POINT SOURCES/SINKS PRESENT IN THE FLOW MODEL =   240

 MAXIMUM STEPSIZE WHICH MEETS STABILITY CRITERION OF THE SINK & SOURCE TERM
 = 0.1000E+31(WHEN MIN. R.F.=1)  AT K=   0, I=   0, J=   0

 MAXIMUM STEPSIZE WHICH MEETS STABILITY CRITERION OF THE DISPERSION TERM
 = 0.6204E-02(WHEN MIN. R.F.=1)  AT K=   3, I=   2, J=  31
     1 CALLS TO GCG PACKAGE FOR TRANSPORT TIME STEP   3 IN FLOW TIME STEP  29 STRESS PERIOD   2
    17 TOTAL ITERATIONS
 
 SOLVING FOR HEAD 
 FLOW MODEL IS TRANSIENT
 FLOW MODEL CONTAINS CONSTANT-HEAD CELLS


 MAXIMUM STEPSIZE DURING WHICH ANY PARTICLE CANNOT MOVE MORE THAN ONE CELL
 = 0.1635    (WHEN MIN. R.F.=1)  AT K=   3, I=   2, J=  29

 MAXIMUM STEPSIZE WHICH MEETS STABILITY CRITERION OF THE ADVECTION TERM
 (FOR PURE FINITE-DIFFERENCE OPTION, MIXELM=0) 
 = 0.1133    (WHEN MIN. R.F.=1)  AT K=   3, I=   2, J=  28


 TOTAL NUMBER OF POINT SOURCES/SINKS PRESENT IN THE FLOW MODEL =   240

 MAXIMUM STEPSIZE WHICH MEETS STABILITY CRITERION OF THE SINK & SOURCE TERM
 = 0.1000E+31(WHEN MIN. R.F.=1)  AT K=   0, I=   0, J=   0

 MAXIMUM STEPSIZE WHICH MEETS STABILITY CRITERION OF THE DISPERSION TERM
 = 0.6204E-02(WHEN MIN. R.F.=1)  AT K=   3, I=   2, J=  31
     1 CALLS TO GCG PACKAGE FOR TRANSPORT TIME STEP   4 IN FLOW TIME STEP  29 STRESS PERIOD   2
    17 TOTAL ITERATIONS
 
 SOLVING FOR HEAD 
 FLOW MODEL IS TRANSIENT
 FLOW MODEL CONTAINS CONSTANT-HEAD CELLS


 MAXIMUM STEPSIZE DURING WHICH ANY PARTICLE CANNOT MOVE MORE THAN ONE CELL
 = 0.1635    (WHEN MIN. R.F.=1)  AT K=   3, I=   2, J=  29

 MAXIMUM STEPSIZE WHICH MEETS STABILITY CRITERION OF THE ADVECTION TERM
 (FOR PURE FINITE-DIFFERENCE OPTION, MIXELM=0) 
 = 0.1133    (WHEN MIN. R.F.=1)  AT K=   3, I=   2, J=  28


 TOTAL NUMBER OF POINT SOURCES/SINKS PRESENT IN THE FLOW MODEL =   240

 MAXIMUM STEPSIZE WHICH MEETS STABILITY CRITERION OF THE SINK & SOURCE TERM
 = 0.1000E+31(WHEN MIN. R.F.=1)  AT K=   0, I=   0, J=   0

 MAXIMUM STEPSIZE WHICH MEETS STABILITY CRITERION OF THE DISPERSION TERM
 = 0.6204E-02(WHEN MIN. R.F.=1)  AT K=   3, I=   2, J=  31
     1 CALLS TO GCG PACKAGE FOR TRANSPORT TIME STEP   5 IN FLOW TIME STEP  29 STRESS PERIOD   2
    17 TOTAL ITERATIONS
 
 SOLVING FOR HEAD 
 FLOW MODEL IS TRANSIENT
 FLOW MODEL CONTAINS CONSTANT-HEAD CELLS


 MAXIMUM STEPSIZE DURING WHICH ANY PARTICLE CANNOT MOVE MORE THAN ONE CELL
 = 0.1635    (WHEN MIN. R.F.=1)  AT K=   3, I=   2, J=  29

 MAXIMUM STEPSIZE WHICH MEETS STABILITY CRITERION OF THE ADVECTION TERM
 (FOR PURE FINITE-DIFFERENCE OPTION, MIXELM=0) 
 = 0.1133    (WHEN MIN. R.F.=1)  AT K=   3, I=   2, J=  28


 TOTAL NUMBER OF POINT SOURCES/SINKS PRESENT IN THE FLOW MODEL =   240

 MAXIMUM STEPSIZE WHICH MEETS STABILITY CRITERION OF THE SINK & SOURCE TERM
 = 0.1000E+31(WHEN MIN. R.F.=1)  AT K=   0, I=   0, J=   0

 MAXIMUM STEPSIZE WHICH MEETS STABILITY CRITERION OF THE DISPERSION TERM
 = 0.6204E-02(WHEN MIN. R.F.=1)  AT K=   3, I=   2, J=  31
     1 CALLS TO GCG PACKAGE FOR TRANSPORT TIME STEP   6 IN FLOW TIME STEP  29 STRESS PERIOD   2
    17 TOTAL ITERATIONS
 
 SOLVING FOR HEAD 
 FLOW MODEL IS TRANSIENT
 FLOW MODEL CONTAINS CONSTANT-HEAD CELLS


 MAXIMUM STEPSIZE DURING WHICH ANY PARTICLE CANNOT MOVE MORE THAN ONE CELL
 = 0.1635    (WHEN MIN. R.F.=1)  AT K=   3, I=   2, J=  29

 MAXIMUM STEPSIZE WHICH MEETS STABILITY CRITERION OF THE ADVECTION TERM
 (FOR PURE FINITE-DIFFERENCE OPTION, MIXELM=0) 
 = 0.1133    (WHEN MIN. R.F.=1)  AT K=   3, I=   2, J=  28


 TOTAL NUMBER OF POINT SOURCES/SINKS PRESENT IN THE FLOW MODEL =   240

 MAXIMUM STEPSIZE WHICH MEETS STABILITY CRITERION OF THE SINK & SOURCE TERM
 = 0.1000E+31(WHEN MIN. R.F.=1)  AT K=   0, I=   0, J=   0

 MAXIMUM STEPSIZE WHICH MEETS STABILITY CRITERION OF THE DISPERSION TERM
 = 0.6204E-02(WHEN MIN. R.F.=1)  AT K=   3, I=   2, J=  31
     1 CALLS TO GCG PACKAGE FOR TRANSPORT TIME STEP   7 IN FLOW TIME STEP  29 STRESS PERIOD   2
    17 TOTAL ITERATIONS
 
 SOLVING FOR HEAD 
 FLOW MODEL IS TRANSIENT
 FLOW MODEL CONTAINS CONSTANT-HEAD CELLS


 MAXIMUM STEPSIZE DURING WHICH ANY PARTICLE CANNOT MOVE MORE THAN ONE CELL
 = 0.1635    (WHEN MIN. R.F.=1)  AT K=   3, I=   2, J=  29

 MAXIMUM STEPSIZE WHICH MEETS STABILITY CRITERION OF THE ADVECTION TERM
 (FOR PURE FINITE-DIFFERENCE OPTION, MIXELM=0) 
 = 0.1133    (WHEN MIN. R.F.=1)  AT K=   3, I=   2, J=  28


 TOTAL NUMBER OF POINT SOURCES/SINKS PRESENT IN THE FLOW MODEL =   240

 MAXIMUM STEPSIZE WHICH MEETS STABILITY CRITERION OF THE SINK & SOURCE TERM
 = 0.1000E+31(WHEN MIN. R.F.=1)  AT K=   0, I=   0, J=   0

 MAXIMUM STEPSIZE WHICH MEETS STABILITY CRITERION OF THE DISPERSION TERM
 = 0.6204E-02(WHEN MIN. R.F.=1)  AT K=   3, I=   2, J=  31
     1 CALLS TO GCG PACKAGE FOR TRANSPORT TIME STEP   8 IN FLOW TIME STEP  29 STRESS PERIOD   2
    17 TOTAL ITERATIONS
 
 SOLVING FOR HEAD 
 FLOW MODEL IS TRANSIENT
 FLOW MODEL CONTAINS CONSTANT-HEAD CELLS


 MAXIMUM STEPSIZE DURING WHICH ANY PARTICLE CANNOT MOVE MORE THAN ONE CELL
 = 0.1635    (WHEN MIN. R.F.=1)  AT K=   3, I=   2, J=  29

 MAXIMUM STEPSIZE WHICH MEETS STABILITY CRITERION OF THE ADVECTION TERM
 (FOR PURE FINITE-DIFFERENCE OPTION, MIXELM=0) 
 = 0.1133    (WHEN MIN. R.F.=1)  AT K=   3, I=   2, J=  28


 TOTAL NUMBER OF POINT SOURCES/SINKS PRESENT IN THE FLOW MODEL =   240

 MAXIMUM STEPSIZE WHICH MEETS STABILITY CRITERION OF THE SINK & SOURCE TERM
 = 0.1000E+31(WHEN MIN. R.F.=1)  AT K=   0, I=   0, J=   0

 MAXIMUM STEPSIZE WHICH MEETS STABILITY CRITERION OF THE DISPERSION TERM
 = 0.6204E-02(WHEN MIN. R.F.=1)  AT K=   3, I=   2, J=  31
     1 CALLS TO GCG PACKAGE FOR TRANSPORT TIME STEP   9 IN FLOW TIME STEP  29 STRESS PERIOD   2
     8 TOTAL ITERATIONS
  MAXIMUM CONCENTRATION CHANGES FOR EACH ITERATION:
  MAX. CHANGE LAYER,ROW,COL MAX. CHANGE LAYER,ROW,COL MAX. CHANGE LAYER,ROW,COL MAX. CHANGE LAYER,ROW,COL MAX. CHANGE LAYER,ROW,COL
 ------------------------------------------------------------------------------------------------------------------------------------
   0.2961E-03 ( 13,  3, 52)  0.2577E-04 (  6,  1, 57)  0.4916E-05 (  6,  1, 54)  0.1855E-05 (  3,  3, 31)  0.7860E-06 (  3,  3, 30)
   0.3451E-06 (  3,  3, 31)  0.1052E-06 (  3,  3, 30)  0.3327E-07 (  3,  3, 29)


                                          ================================================
                                                         FROM TIME =   30.000     TO    31.000    

 
 SOLVING FOR HEAD 
 FLOW MODEL IS TRANSIENT
 FLOW MODEL CONTAINS CONSTANT-HEAD CELLS


 MAXIMUM STEPSIZE DURING WHICH ANY PARTICLE CANNOT MOVE MORE THAN ONE CELL
 = 0.1635    (WHEN MIN. R.F.=1)  AT K=   3, I=   2, J=  29

 MAXIMUM STEPSIZE WHICH MEETS STABILITY CRITERION OF THE ADVECTION TERM
 (FOR PURE FINITE-DIFFERENCE OPTION, MIXELM=0) 
 = 0.1133    (WHEN MIN. R.F.=1)  AT K=   3, I=   2, J=  28


 TOTAL NUMBER OF POINT SOURCES/SINKS PRESENT IN THE FLOW MODEL =   240

 MAXIMUM STEPSIZE WHICH MEETS STABILITY CRITERION OF THE SINK & SOURCE TERM
 = 0.1000E+31(WHEN MIN. R.F.=1)  AT K=   0, I=   0, J=   0

 MAXIMUM STEPSIZE WHICH MEETS STABILITY CRITERION OF THE DISPERSION TERM
 = 0.6204E-02(WHEN MIN. R.F.=1)  AT K=   3, I=   2, J=  31


     1 CALLS TO GCG PACKAGE FOR TRANSPORT TIME STEP   1 IN FLOW TIME STEP  30 STRESS PERIOD   2
    17 TOTAL ITERATIONS

 NO OUTPUT CONTROL FOR STRESS PERIOD    2   TIME STEP  30
 
 SOLVING FOR HEAD 
 FLOW MODEL IS TRANSIENT
 FLOW MODEL CONTAINS CONSTANT-HEAD CELLS


 MAXIMUM STEPSIZE DURING WHICH ANY PARTICLE CANNOT MOVE MORE THAN ONE CELL
 = 0.1635    (WHEN MIN. R.F.=1)  AT K=   3, I=   2, J=  29

 MAXIMUM STEPSIZE WHICH MEETS STABILITY CRITERION OF THE ADVECTION TERM
 (FOR PURE FINITE-DIFFERENCE OPTION, MIXELM=0) 
 = 0.1133    (WHEN MIN. R.F.=1)  AT K=   3, I=   2, J=  28


 TOTAL NUMBER OF POINT SOURCES/SINKS PRESENT IN THE FLOW MODEL =   240

 MAXIMUM STEPSIZE WHICH MEETS STABILITY CRITERION OF THE SINK & SOURCE TERM
 = 0.1000E+31(WHEN MIN. R.F.=1)  AT K=   0, I=   0, J=   0

 MAXIMUM STEPSIZE WHICH MEETS STABILITY CRITERION OF THE DISPERSION TERM
 = 0.6204E-02(WHEN MIN. R.F.=1)  AT K=   3, I=   2, J=  31
     1 CALLS TO GCG PACKAGE FOR TRANSPORT TIME STEP   2 IN FLOW TIME STEP  30 STRESS PERIOD   2
    17 TOTAL ITERATIONS
 
 SOLVING FOR HEAD 
 FLOW MODEL IS TRANSIENT
 FLOW MODEL CONTAINS CONSTANT-HEAD CELLS


 MAXIMUM STEPSIZE DURING WHICH ANY PARTICLE CANNOT MOVE MORE THAN ONE CELL
 = 0.1635    (WHEN MIN. R.F.=1)  AT K=   3, I=   2, J=  29

 MAXIMUM STEPSIZE WHICH MEETS STABILITY CRITERION OF THE ADVECTION TERM
 (FOR PURE FINITE-DIFFERENCE OPTION, MIXELM=0) 
 = 0.1133    (WHEN MIN. R.F.=1)  AT K=   3, I=   2, J=  28


 TOTAL NUMBER OF POINT SOURCES/SINKS PRESENT IN THE FLOW MODEL =   240

 MAXIMUM STEPSIZE WHICH MEETS STABILITY CRITERION OF THE SINK & SOURCE TERM
 = 0.1000E+31(WHEN MIN. R.F.=1)  AT K=   0, I=   0, J=   0

 MAXIMUM STEPSIZE WHICH MEETS STABILITY CRITERION OF THE DISPERSION TERM
 = 0.6204E-02(WHEN MIN. R.F.=1)  AT K=   3, I=   2, J=  31
     1 CALLS TO GCG PACKAGE FOR TRANSPORT TIME STEP   3 IN FLOW TIME STEP  30 STRESS PERIOD   2
    17 TOTAL ITERATIONS
 
 SOLVING FOR HEAD 
 FLOW MODEL IS TRANSIENT
 FLOW MODEL CONTAINS CONSTANT-HEAD CELLS


 MAXIMUM STEPSIZE DURING WHICH ANY PARTICLE CANNOT MOVE MORE THAN ONE CELL
 = 0.1635    (WHEN MIN. R.F.=1)  AT K=   3, I=   2, J=  29

 MAXIMUM STEPSIZE WHICH MEETS STABILITY CRITERION OF THE ADVECTION TERM
 (FOR PURE FINITE-DIFFERENCE OPTION, MIXELM=0) 
 = 0.1133    (WHEN MIN. R.F.=1)  AT K=   3, I=   2, J=  28


 TOTAL NUMBER OF POINT SOURCES/SINKS PRESENT IN THE FLOW MODEL =   240

 MAXIMUM STEPSIZE WHICH MEETS STABILITY CRITERION OF THE SINK & SOURCE TERM
 = 0.1000E+31(WHEN MIN. R.F.=1)  AT K=   0, I=   0, J=   0

 MAXIMUM STEPSIZE WHICH MEETS STABILITY CRITERION OF THE DISPERSION TERM
 = 0.6204E-02(WHEN MIN. R.F.=1)  AT K=   3, I=   2, J=  31
     1 CALLS TO GCG PACKAGE FOR TRANSPORT TIME STEP   4 IN FLOW TIME STEP  30 STRESS PERIOD   2
    17 TOTAL ITERATIONS
 
 SOLVING FOR HEAD 
 FLOW MODEL IS TRANSIENT
 FLOW MODEL CONTAINS CONSTANT-HEAD CELLS


 MAXIMUM STEPSIZE DURING WHICH ANY PARTICLE CANNOT MOVE MORE THAN ONE CELL
 = 0.1634    (WHEN MIN. R.F.=1)  AT K=   3, I=   2, J=  29

 MAXIMUM STEPSIZE WHICH MEETS STABILITY CRITERION OF THE ADVECTION TERM
 (FOR PURE FINITE-DIFFERENCE OPTION, MIXELM=0) 
 = 0.1133    (WHEN MIN. R.F.=1)  AT K=   3, I=   2, J=  28


 TOTAL NUMBER OF POINT SOURCES/SINKS PRESENT IN THE FLOW MODEL =   240

 MAXIMUM STEPSIZE WHICH MEETS STABILITY CRITERION OF THE SINK & SOURCE TERM
 = 0.1000E+31(WHEN MIN. R.F.=1)  AT K=   0, I=   0, J=   0

 MAXIMUM STEPSIZE WHICH MEETS STABILITY CRITERION OF THE DISPERSION TERM
 = 0.6204E-02(WHEN MIN. R.F.=1)  AT K=   3, I=   2, J=  31
     1 CALLS TO GCG PACKAGE FOR TRANSPORT TIME STEP   5 IN FLOW TIME STEP  30 STRESS PERIOD   2
    17 TOTAL ITERATIONS
 
 SOLVING FOR HEAD 
 FLOW MODEL IS TRANSIENT
 FLOW MODEL CONTAINS CONSTANT-HEAD CELLS


 MAXIMUM STEPSIZE DURING WHICH ANY PARTICLE CANNOT MOVE MORE THAN ONE CELL
 = 0.1634    (WHEN MIN. R.F.=1)  AT K=   3, I=   2, J=  29

 MAXIMUM STEPSIZE WHICH MEETS STABILITY CRITERION OF THE ADVECTION TERM
 (FOR PURE FINITE-DIFFERENCE OPTION, MIXELM=0) 
 = 0.1133    (WHEN MIN. R.F.=1)  AT K=   3, I=   2, J=  28


 TOTAL NUMBER OF POINT SOURCES/SINKS PRESENT IN THE FLOW MODEL =   240

 MAXIMUM STEPSIZE WHICH MEETS STABILITY CRITERION OF THE SINK & SOURCE TERM
 = 0.1000E+31(WHEN MIN. R.F.=1)  AT K=   0, I=   0, J=   0

 MAXIMUM STEPSIZE WHICH MEETS STABILITY CRITERION OF THE DISPERSION TERM
 = 0.6204E-02(WHEN MIN. R.F.=1)  AT K=   3, I=   2, J=  31
     1 CALLS TO GCG PACKAGE FOR TRANSPORT TIME STEP   6 IN FLOW TIME STEP  30 STRESS PERIOD   2
    17 TOTAL ITERATIONS
 
 SOLVING FOR HEAD 
 FLOW MODEL IS TRANSIENT
 FLOW MODEL CONTAINS CONSTANT-HEAD CELLS


 MAXIMUM STEPSIZE DURING WHICH ANY PARTICLE CANNOT MOVE MORE THAN ONE CELL
 = 0.1634    (WHEN MIN. R.F.=1)  AT K=   3, I=   2, J=  29

 MAXIMUM STEPSIZE WHICH MEETS STABILITY CRITERION OF THE ADVECTION TERM
 (FOR PURE FINITE-DIFFERENCE OPTION, MIXELM=0) 
 = 0.1133    (WHEN MIN. R.F.=1)  AT K=   3, I=   2, J=  28


 TOTAL NUMBER OF POINT SOURCES/SINKS PRESENT IN THE FLOW MODEL =   240

 MAXIMUM STEPSIZE WHICH MEETS STABILITY CRITERION OF THE SINK & SOURCE TERM
 = 0.1000E+31(WHEN MIN. R.F.=1)  AT K=   0, I=   0, J=   0

 MAXIMUM STEPSIZE WHICH MEETS STABILITY CRITERION OF THE DISPERSION TERM
 = 0.6204E-02(WHEN MIN. R.F.=1)  AT K=   3, I=   2, J=  31
     1 CALLS TO GCG PACKAGE FOR TRANSPORT TIME STEP   7 IN FLOW TIME STEP  30 STRESS PERIOD   2
    17 TOTAL ITERATIONS
 
 SOLVING FOR HEAD 
 FLOW MODEL IS TRANSIENT
 FLOW MODEL CONTAINS CONSTANT-HEAD CELLS


 MAXIMUM STEPSIZE DURING WHICH ANY PARTICLE CANNOT MOVE MORE THAN ONE CELL
 = 0.1634    (WHEN MIN. R.F.=1)  AT K=   3, I=   2, J=  29

 MAXIMUM STEPSIZE WHICH MEETS STABILITY CRITERION OF THE ADVECTION TERM
 (FOR PURE FINITE-DIFFERENCE OPTION, MIXELM=0) 
 = 0.1133    (WHEN MIN. R.F.=1)  AT K=   3, I=   2, J=  28


 TOTAL NUMBER OF POINT SOURCES/SINKS PRESENT IN THE FLOW MODEL =   240

 MAXIMUM STEPSIZE WHICH MEETS STABILITY CRITERION OF THE SINK & SOURCE TERM
 = 0.1000E+31(WHEN MIN. R.F.=1)  AT K=   0, I=   0, J=   0

 MAXIMUM STEPSIZE WHICH MEETS STABILITY CRITERION OF THE DISPERSION TERM
 = 0.6204E-02(WHEN MIN. R.F.=1)  AT K=   3, I=   2, J=  31
     1 CALLS TO GCG PACKAGE FOR TRANSPORT TIME STEP   8 IN FLOW TIME STEP  30 STRESS PERIOD   2
    17 TOTAL ITERATIONS
 
 SOLVING FOR HEAD 
 FLOW MODEL IS TRANSIENT
 FLOW MODEL CONTAINS CONSTANT-HEAD CELLS


 MAXIMUM STEPSIZE DURING WHICH ANY PARTICLE CANNOT MOVE MORE THAN ONE CELL
 = 0.1634    (WHEN MIN. R.F.=1)  AT K=   3, I=   2, J=  29

 MAXIMUM STEPSIZE WHICH MEETS STABILITY CRITERION OF THE ADVECTION TERM
 (FOR PURE FINITE-DIFFERENCE OPTION, MIXELM=0) 
 = 0.1133    (WHEN MIN. R.F.=1)  AT K=   3, I=   2, J=  28


 TOTAL NUMBER OF POINT SOURCES/SINKS PRESENT IN THE FLOW MODEL =   240

 MAXIMUM STEPSIZE WHICH MEETS STABILITY CRITERION OF THE SINK & SOURCE TERM
 = 0.1000E+31(WHEN MIN. R.F.=1)  AT K=   0, I=   0, J=   0

 MAXIMUM STEPSIZE WHICH MEETS STABILITY CRITERION OF THE DISPERSION TERM
 = 0.6203E-02(WHEN MIN. R.F.=1)  AT K=   3, I=   2, J=  31
     1 CALLS TO GCG PACKAGE FOR TRANSPORT TIME STEP   9 IN FLOW TIME STEP  30 STRESS PERIOD   2
     7 TOTAL ITERATIONS
  MAXIMUM CONCENTRATION CHANGES FOR EACH ITERATION:
  MAX. CHANGE LAYER,ROW,COL MAX. CHANGE LAYER,ROW,COL MAX. CHANGE LAYER,ROW,COL MAX. CHANGE LAYER,ROW,COL MAX. CHANGE LAYER,ROW,COL
 ------------------------------------------------------------------------------------------------------------------------------------
   0.2881E-03 ( 13,  3, 52)  0.2437E-04 (  6,  1, 57)  0.4706E-05 (  6,  1, 55)  0.1745E-05 (  3,  3, 31)  0.7417E-06 (  3,  3, 30)
   0.3247E-06 (  3,  3, 31)  0.9989E-07 (  3,  3, 30)


                                          ================================================
                                                         FROM TIME =   31.000     TO    32.000    

 
 SOLVING FOR HEAD 
 FLOW MODEL IS TRANSIENT
 FLOW MODEL CONTAINS CONSTANT-HEAD CELLS


 MAXIMUM STEPSIZE DURING WHICH ANY PARTICLE CANNOT MOVE MORE THAN ONE CELL
 = 0.1634    (WHEN MIN. R.F.=1)  AT K=   3, I=   2, J=  29

 MAXIMUM STEPSIZE WHICH MEETS STABILITY CRITERION OF THE ADVECTION TERM
 (FOR PURE FINITE-DIFFERENCE OPTION, MIXELM=0) 
 = 0.1133    (WHEN MIN. R.F.=1)  AT K=   3, I=   2, J=  28


 TOTAL NUMBER OF POINT SOURCES/SINKS PRESENT IN THE FLOW MODEL =   240

 MAXIMUM STEPSIZE WHICH MEETS STABILITY CRITERION OF THE SINK & SOURCE TERM
 = 0.1000E+31(WHEN MIN. R.F.=1)  AT K=   0, I=   0, J=   0

 MAXIMUM STEPSIZE WHICH MEETS STABILITY CRITERION OF THE DISPERSION TERM
 = 0.6203E-02(WHEN MIN. R.F.=1)  AT K=   3, I=   2, J=  31


     1 CALLS TO GCG PACKAGE FOR TRANSPORT TIME STEP   1 IN FLOW TIME STEP  31 STRESS PERIOD   2
    17 TOTAL ITERATIONS

 NO OUTPUT CONTROL FOR STRESS PERIOD    2   TIME STEP  31
 
 SOLVING FOR HEAD 
 FLOW MODEL IS TRANSIENT
 FLOW MODEL CONTAINS CONSTANT-HEAD CELLS


 MAXIMUM STEPSIZE DURING WHICH ANY PARTICLE CANNOT MOVE MORE THAN ONE CELL
 = 0.1634    (WHEN MIN. R.F.=1)  AT K=   3, I=   2, J=  29

 MAXIMUM STEPSIZE WHICH MEETS STABILITY CRITERION OF THE ADVECTION TERM
 (FOR PURE FINITE-DIFFERENCE OPTION, MIXELM=0) 
 = 0.1133    (WHEN MIN. R.F.=1)  AT K=   3, I=   2, J=  28


 TOTAL NUMBER OF POINT SOURCES/SINKS PRESENT IN THE FLOW MODEL =   240

 MAXIMUM STEPSIZE WHICH MEETS STABILITY CRITERION OF THE SINK & SOURCE TERM
 = 0.1000E+31(WHEN MIN. R.F.=1)  AT K=   0, I=   0, J=   0

 MAXIMUM STEPSIZE WHICH MEETS STABILITY CRITERION OF THE DISPERSION TERM
 = 0.6203E-02(WHEN MIN. R.F.=1)  AT K=   3, I=   2, J=  31
     1 CALLS TO GCG PACKAGE FOR TRANSPORT TIME STEP   2 IN FLOW TIME STEP  31 STRESS PERIOD   2
    17 TOTAL ITERATIONS
 
 SOLVING FOR HEAD 
 FLOW MODEL IS TRANSIENT
 FLOW MODEL CONTAINS CONSTANT-HEAD CELLS


 MAXIMUM STEPSIZE DURING WHICH ANY PARTICLE CANNOT MOVE MORE THAN ONE CELL
 = 0.1634    (WHEN MIN. R.F.=1)  AT K=   3, I=   2, J=  29

 MAXIMUM STEPSIZE WHICH MEETS STABILITY CRITERION OF THE ADVECTION TERM
 (FOR PURE FINITE-DIFFERENCE OPTION, MIXELM=0) 
 = 0.1133    (WHEN MIN. R.F.=1)  AT K=   3, I=   2, J=  28


 TOTAL NUMBER OF POINT SOURCES/SINKS PRESENT IN THE FLOW MODEL =   240

 MAXIMUM STEPSIZE WHICH MEETS STABILITY CRITERION OF THE SINK & SOURCE TERM
 = 0.1000E+31(WHEN MIN. R.F.=1)  AT K=   0, I=   0, J=   0

 MAXIMUM STEPSIZE WHICH MEETS STABILITY CRITERION OF THE DISPERSION TERM
 = 0.6203E-02(WHEN MIN. R.F.=1)  AT K=   3, I=   2, J=  31
     1 CALLS TO GCG PACKAGE FOR TRANSPORT TIME STEP   3 IN FLOW TIME STEP  31 STRESS PERIOD   2
    17 TOTAL ITERATIONS
 
 SOLVING FOR HEAD 
 FLOW MODEL IS TRANSIENT
 FLOW MODEL CONTAINS CONSTANT-HEAD CELLS


 MAXIMUM STEPSIZE DURING WHICH ANY PARTICLE CANNOT MOVE MORE THAN ONE CELL
 = 0.1634    (WHEN MIN. R.F.=1)  AT K=   3, I=   2, J=  29

 MAXIMUM STEPSIZE WHICH MEETS STABILITY CRITERION OF THE ADVECTION TERM
 (FOR PURE FINITE-DIFFERENCE OPTION, MIXELM=0) 
 = 0.1133    (WHEN MIN. R.F.=1)  AT K=   3, I=   2, J=  28


 TOTAL NUMBER OF POINT SOURCES/SINKS PRESENT IN THE FLOW MODEL =   240

 MAXIMUM STEPSIZE WHICH MEETS STABILITY CRITERION OF THE SINK & SOURCE TERM
 = 0.1000E+31(WHEN MIN. R.F.=1)  AT K=   0, I=   0, J=   0

 MAXIMUM STEPSIZE WHICH MEETS STABILITY CRITERION OF THE DISPERSION TERM
 = 0.6203E-02(WHEN MIN. R.F.=1)  AT K=   3, I=   2, J=  31
     1 CALLS TO GCG PACKAGE FOR TRANSPORT TIME STEP   4 IN FLOW TIME STEP  31 STRESS PERIOD   2
    17 TOTAL ITERATIONS
 
 SOLVING FOR HEAD 
 FLOW MODEL IS TRANSIENT
 FLOW MODEL CONTAINS CONSTANT-HEAD CELLS


 MAXIMUM STEPSIZE DURING WHICH ANY PARTICLE CANNOT MOVE MORE THAN ONE CELL
 = 0.1634    (WHEN MIN. R.F.=1)  AT K=   3, I=   2, J=  29

 MAXIMUM STEPSIZE WHICH MEETS STABILITY CRITERION OF THE ADVECTION TERM
 (FOR PURE FINITE-DIFFERENCE OPTION, MIXELM=0) 
 = 0.1133    (WHEN MIN. R.F.=1)  AT K=   3, I=   2, J=  28


 TOTAL NUMBER OF POINT SOURCES/SINKS PRESENT IN THE FLOW MODEL =   240

 MAXIMUM STEPSIZE WHICH MEETS STABILITY CRITERION OF THE SINK & SOURCE TERM
 = 0.1000E+31(WHEN MIN. R.F.=1)  AT K=   0, I=   0, J=   0

 MAXIMUM STEPSIZE WHICH MEETS STABILITY CRITERION OF THE DISPERSION TERM
 = 0.6203E-02(WHEN MIN. R.F.=1)  AT K=   3, I=   2, J=  31
     1 CALLS TO GCG PACKAGE FOR TRANSPORT TIME STEP   5 IN FLOW TIME STEP  31 STRESS PERIOD   2
    17 TOTAL ITERATIONS
 
 SOLVING FOR HEAD 
 FLOW MODEL IS TRANSIENT
 FLOW MODEL CONTAINS CONSTANT-HEAD CELLS


 MAXIMUM STEPSIZE DURING WHICH ANY PARTICLE CANNOT MOVE MORE THAN ONE CELL
 = 0.1634    (WHEN MIN. R.F.=1)  AT K=   3, I=   2, J=  29

 MAXIMUM STEPSIZE WHICH MEETS STABILITY CRITERION OF THE ADVECTION TERM
 (FOR PURE FINITE-DIFFERENCE OPTION, MIXELM=0) 
 = 0.1133    (WHEN MIN. R.F.=1)  AT K=   3, I=   2, J=  28


 TOTAL NUMBER OF POINT SOURCES/SINKS PRESENT IN THE FLOW MODEL =   240

 MAXIMUM STEPSIZE WHICH MEETS STABILITY CRITERION OF THE SINK & SOURCE TERM
 = 0.1000E+31(WHEN MIN. R.F.=1)  AT K=   0, I=   0, J=   0

 MAXIMUM STEPSIZE WHICH MEETS STABILITY CRITERION OF THE DISPERSION TERM
 = 0.6203E-02(WHEN MIN. R.F.=1)  AT K=   3, I=   2, J=  31
     1 CALLS TO GCG PACKAGE FOR TRANSPORT TIME STEP   6 IN FLOW TIME STEP  31 STRESS PERIOD   2
    17 TOTAL ITERATIONS
 
 SOLVING FOR HEAD 
 FLOW MODEL IS TRANSIENT
 FLOW MODEL CONTAINS CONSTANT-HEAD CELLS


 MAXIMUM STEPSIZE DURING WHICH ANY PARTICLE CANNOT MOVE MORE THAN ONE CELL
 = 0.1634    (WHEN MIN. R.F.=1)  AT K=   3, I=   2, J=  29

 MAXIMUM STEPSIZE WHICH MEETS STABILITY CRITERION OF THE ADVECTION TERM
 (FOR PURE FINITE-DIFFERENCE OPTION, MIXELM=0) 
 = 0.1133    (WHEN MIN. R.F.=1)  AT K=   3, I=   2, J=  28


 TOTAL NUMBER OF POINT SOURCES/SINKS PRESENT IN THE FLOW MODEL =   240

 MAXIMUM STEPSIZE WHICH MEETS STABILITY CRITERION OF THE SINK & SOURCE TERM
 = 0.1000E+31(WHEN MIN. R.F.=1)  AT K=   0, I=   0, J=   0

 MAXIMUM STEPSIZE WHICH MEETS STABILITY CRITERION OF THE DISPERSION TERM
 = 0.6203E-02(WHEN MIN. R.F.=1)  AT K=   3, I=   2, J=  31
     1 CALLS TO GCG PACKAGE FOR TRANSPORT TIME STEP   7 IN FLOW TIME STEP  31 STRESS PERIOD   2
    17 TOTAL ITERATIONS
 
 SOLVING FOR HEAD 
 FLOW MODEL IS TRANSIENT
 FLOW MODEL CONTAINS CONSTANT-HEAD CELLS


 MAXIMUM STEPSIZE DURING WHICH ANY PARTICLE CANNOT MOVE MORE THAN ONE CELL
 = 0.1634    (WHEN MIN. R.F.=1)  AT K=   3, I=   2, J=  29

 MAXIMUM STEPSIZE WHICH MEETS STABILITY CRITERION OF THE ADVECTION TERM
 (FOR PURE FINITE-DIFFERENCE OPTION, MIXELM=0) 
 = 0.1133    (WHEN MIN. R.F.=1)  AT K=   3, I=   2, J=  28


 TOTAL NUMBER OF POINT SOURCES/SINKS PRESENT IN THE FLOW MODEL =   240

 MAXIMUM STEPSIZE WHICH MEETS STABILITY CRITERION OF THE SINK & SOURCE TERM
 = 0.1000E+31(WHEN MIN. R.F.=1)  AT K=   0, I=   0, J=   0

 MAXIMUM STEPSIZE WHICH MEETS STABILITY CRITERION OF THE DISPERSION TERM
 = 0.6203E-02(WHEN MIN. R.F.=1)  AT K=   3, I=   2, J=  31
     1 CALLS TO GCG PACKAGE FOR TRANSPORT TIME STEP   8 IN FLOW TIME STEP  31 STRESS PERIOD   2
    17 TOTAL ITERATIONS
 
 SOLVING FOR HEAD 
 FLOW MODEL IS TRANSIENT
 FLOW MODEL CONTAINS CONSTANT-HEAD CELLS


 MAXIMUM STEPSIZE DURING WHICH ANY PARTICLE CANNOT MOVE MORE THAN ONE CELL
 = 0.1634    (WHEN MIN. R.F.=1)  AT K=   3, I=   2, J=  29

 MAXIMUM STEPSIZE WHICH MEETS STABILITY CRITERION OF THE ADVECTION TERM
 (FOR PURE FINITE-DIFFERENCE OPTION, MIXELM=0) 
 = 0.1133    (WHEN MIN. R.F.=1)  AT K=   3, I=   2, J=  28


 TOTAL NUMBER OF POINT SOURCES/SINKS PRESENT IN THE FLOW MODEL =   240

 MAXIMUM STEPSIZE WHICH MEETS STABILITY CRITERION OF THE SINK & SOURCE TERM
 = 0.1000E+31(WHEN MIN. R.F.=1)  AT K=   0, I=   0, J=   0

 MAXIMUM STEPSIZE WHICH MEETS STABILITY CRITERION OF THE DISPERSION TERM
 = 0.6203E-02(WHEN MIN. R.F.=1)  AT K=   3, I=   2, J=  31
     1 CALLS TO GCG PACKAGE FOR TRANSPORT TIME STEP   9 IN FLOW TIME STEP  31 STRESS PERIOD   2
     7 TOTAL ITERATIONS
  MAXIMUM CONCENTRATION CHANGES FOR EACH ITERATION:
  MAX. CHANGE LAYER,ROW,COL MAX. CHANGE LAYER,ROW,COL MAX. CHANGE LAYER,ROW,COL MAX. CHANGE LAYER,ROW,COL MAX. CHANGE LAYER,ROW,COL
 ------------------------------------------------------------------------------------------------------------------------------------
   0.2798E-03 ( 13,  3, 52)  0.2306E-04 (  6,  1, 57)  0.4513E-05 (  6,  1, 55)  0.1643E-05 (  3,  3, 31)  0.7011E-06 (  3,  3, 30)
   0.3061E-06 (  3,  3, 31)  0.9496E-07 (  3,  3, 30)


                                          ================================================
                                                         FROM TIME =   32.000     TO    33.000    

 
 SOLVING FOR HEAD 
 FLOW MODEL IS TRANSIENT
 FLOW MODEL CONTAINS CONSTANT-HEAD CELLS


 MAXIMUM STEPSIZE DURING WHICH ANY PARTICLE CANNOT MOVE MORE THAN ONE CELL
 = 0.1634    (WHEN MIN. R.F.=1)  AT K=   3, I=   2, J=  29

 MAXIMUM STEPSIZE WHICH MEETS STABILITY CRITERION OF THE ADVECTION TERM
 (FOR PURE FINITE-DIFFERENCE OPTION, MIXELM=0) 
 = 0.1133    (WHEN MIN. R.F.=1)  AT K=   3, I=   2, J=  28


 TOTAL NUMBER OF POINT SOURCES/SINKS PRESENT IN THE FLOW MODEL =   240

 MAXIMUM STEPSIZE WHICH MEETS STABILITY CRITERION OF THE SINK & SOURCE TERM
 = 0.1000E+31(WHEN MIN. R.F.=1)  AT K=   0, I=   0, J=   0

 MAXIMUM STEPSIZE WHICH MEETS STABILITY CRITERION OF THE DISPERSION TERM
 = 0.6203E-02(WHEN MIN. R.F.=1)  AT K=   3, I=   2, J=  31


     1 CALLS TO GCG PACKAGE FOR TRANSPORT TIME STEP   1 IN FLOW TIME STEP  32 STRESS PERIOD   2
    16 TOTAL ITERATIONS

 NO OUTPUT CONTROL FOR STRESS PERIOD    2   TIME STEP  32
 
 SOLVING FOR HEAD 
 FLOW MODEL IS TRANSIENT
 FLOW MODEL CONTAINS CONSTANT-HEAD CELLS


 MAXIMUM STEPSIZE DURING WHICH ANY PARTICLE CANNOT MOVE MORE THAN ONE CELL
 = 0.1634    (WHEN MIN. R.F.=1)  AT K=   3, I=   2, J=  29

 MAXIMUM STEPSIZE WHICH MEETS STABILITY CRITERION OF THE ADVECTION TERM
 (FOR PURE FINITE-DIFFERENCE OPTION, MIXELM=0) 
 = 0.1133    (WHEN MIN. R.F.=1)  AT K=   3, I=   2, J=  28


 TOTAL NUMBER OF POINT SOURCES/SINKS PRESENT IN THE FLOW MODEL =   240

 MAXIMUM STEPSIZE WHICH MEETS STABILITY CRITERION OF THE SINK & SOURCE TERM
 = 0.1000E+31(WHEN MIN. R.F.=1)  AT K=   0, I=   0, J=   0

 MAXIMUM STEPSIZE WHICH MEETS STABILITY CRITERION OF THE DISPERSION TERM
 = 0.6203E-02(WHEN MIN. R.F.=1)  AT K=   3, I=   2, J=  31
     1 CALLS TO GCG PACKAGE FOR TRANSPORT TIME STEP   2 IN FLOW TIME STEP  32 STRESS PERIOD   2
    16 TOTAL ITERATIONS
 
 SOLVING FOR HEAD 
 FLOW MODEL IS TRANSIENT
 FLOW MODEL CONTAINS CONSTANT-HEAD CELLS


 MAXIMUM STEPSIZE DURING WHICH ANY PARTICLE CANNOT MOVE MORE THAN ONE CELL
 = 0.1634    (WHEN MIN. R.F.=1)  AT K=   3, I=   2, J=  29

 MAXIMUM STEPSIZE WHICH MEETS STABILITY CRITERION OF THE ADVECTION TERM
 (FOR PURE FINITE-DIFFERENCE OPTION, MIXELM=0) 
 = 0.1133    (WHEN MIN. R.F.=1)  AT K=   3, I=   2, J=  28


 TOTAL NUMBER OF POINT SOURCES/SINKS PRESENT IN THE FLOW MODEL =   240

 MAXIMUM STEPSIZE WHICH MEETS STABILITY CRITERION OF THE SINK & SOURCE TERM
 = 0.1000E+31(WHEN MIN. R.F.=1)  AT K=   0, I=   0, J=   0

 MAXIMUM STEPSIZE WHICH MEETS STABILITY CRITERION OF THE DISPERSION TERM
 = 0.6203E-02(WHEN MIN. R.F.=1)  AT K=   3, I=   2, J=  31
     1 CALLS TO GCG PACKAGE FOR TRANSPORT TIME STEP   3 IN FLOW TIME STEP  32 STRESS PERIOD   2
    16 TOTAL ITERATIONS
 
 SOLVING FOR HEAD 
 FLOW MODEL IS TRANSIENT
 FLOW MODEL CONTAINS CONSTANT-HEAD CELLS


 MAXIMUM STEPSIZE DURING WHICH ANY PARTICLE CANNOT MOVE MORE THAN ONE CELL
 = 0.1634    (WHEN MIN. R.F.=1)  AT K=   3, I=   2, J=  29

 MAXIMUM STEPSIZE WHICH MEETS STABILITY CRITERION OF THE ADVECTION TERM
 (FOR PURE FINITE-DIFFERENCE OPTION, MIXELM=0) 
 = 0.1133    (WHEN MIN. R.F.=1)  AT K=   3, I=   2, J=  28


 TOTAL NUMBER OF POINT SOURCES/SINKS PRESENT IN THE FLOW MODEL =   240

 MAXIMUM STEPSIZE WHICH MEETS STABILITY CRITERION OF THE SINK & SOURCE TERM
 = 0.1000E+31(WHEN MIN. R.F.=1)  AT K=   0, I=   0, J=   0

 MAXIMUM STEPSIZE WHICH MEETS STABILITY CRITERION OF THE DISPERSION TERM
 = 0.6203E-02(WHEN MIN. R.F.=1)  AT K=   3, I=   2, J=  31
     1 CALLS TO GCG PACKAGE FOR TRANSPORT TIME STEP   4 IN FLOW TIME STEP  32 STRESS PERIOD   2
    16 TOTAL ITERATIONS
 
 SOLVING FOR HEAD 
 FLOW MODEL IS TRANSIENT
 FLOW MODEL CONTAINS CONSTANT-HEAD CELLS


 MAXIMUM STEPSIZE DURING WHICH ANY PARTICLE CANNOT MOVE MORE THAN ONE CELL
 = 0.1634    (WHEN MIN. R.F.=1)  AT K=   3, I=   2, J=  29

 MAXIMUM STEPSIZE WHICH MEETS STABILITY CRITERION OF THE ADVECTION TERM
 (FOR PURE FINITE-DIFFERENCE OPTION, MIXELM=0) 
 = 0.1133    (WHEN MIN. R.F.=1)  AT K=   3, I=   2, J=  28


 TOTAL NUMBER OF POINT SOURCES/SINKS PRESENT IN THE FLOW MODEL =   240

 MAXIMUM STEPSIZE WHICH MEETS STABILITY CRITERION OF THE SINK & SOURCE TERM
 = 0.1000E+31(WHEN MIN. R.F.=1)  AT K=   0, I=   0, J=   0

 MAXIMUM STEPSIZE WHICH MEETS STABILITY CRITERION OF THE DISPERSION TERM
 = 0.6203E-02(WHEN MIN. R.F.=1)  AT K=   3, I=   2, J=  31
     1 CALLS TO GCG PACKAGE FOR TRANSPORT TIME STEP   5 IN FLOW TIME STEP  32 STRESS PERIOD   2
    16 TOTAL ITERATIONS
 
 SOLVING FOR HEAD 
 FLOW MODEL IS TRANSIENT
 FLOW MODEL CONTAINS CONSTANT-HEAD CELLS


 MAXIMUM STEPSIZE DURING WHICH ANY PARTICLE CANNOT MOVE MORE THAN ONE CELL
 = 0.1634    (WHEN MIN. R.F.=1)  AT K=   3, I=   2, J=  29

 MAXIMUM STEPSIZE WHICH MEETS STABILITY CRITERION OF THE ADVECTION TERM
 (FOR PURE FINITE-DIFFERENCE OPTION, MIXELM=0) 
 = 0.1133    (WHEN MIN. R.F.=1)  AT K=   3, I=   2, J=  28


 TOTAL NUMBER OF POINT SOURCES/SINKS PRESENT IN THE FLOW MODEL =   240

 MAXIMUM STEPSIZE WHICH MEETS STABILITY CRITERION OF THE SINK & SOURCE TERM
 = 0.1000E+31(WHEN MIN. R.F.=1)  AT K=   0, I=   0, J=   0

 MAXIMUM STEPSIZE WHICH MEETS STABILITY CRITERION OF THE DISPERSION TERM
 = 0.6203E-02(WHEN MIN. R.F.=1)  AT K=   3, I=   2, J=  31
     1 CALLS TO GCG PACKAGE FOR TRANSPORT TIME STEP   6 IN FLOW TIME STEP  32 STRESS PERIOD   2
    16 TOTAL ITERATIONS
 
 SOLVING FOR HEAD 
 FLOW MODEL IS TRANSIENT
 FLOW MODEL CONTAINS CONSTANT-HEAD CELLS


 MAXIMUM STEPSIZE DURING WHICH ANY PARTICLE CANNOT MOVE MORE THAN ONE CELL
 = 0.1634    (WHEN MIN. R.F.=1)  AT K=   3, I=   2, J=  29

 MAXIMUM STEPSIZE WHICH MEETS STABILITY CRITERION OF THE ADVECTION TERM
 (FOR PURE FINITE-DIFFERENCE OPTION, MIXELM=0) 
 = 0.1133    (WHEN MIN. R.F.=1)  AT K=   3, I=   2, J=  28


 TOTAL NUMBER OF POINT SOURCES/SINKS PRESENT IN THE FLOW MODEL =   240

 MAXIMUM STEPSIZE WHICH MEETS STABILITY CRITERION OF THE SINK & SOURCE TERM
 = 0.1000E+31(WHEN MIN. R.F.=1)  AT K=   0, I=   0, J=   0

 MAXIMUM STEPSIZE WHICH MEETS STABILITY CRITERION OF THE DISPERSION TERM
 = 0.6203E-02(WHEN MIN. R.F.=1)  AT K=   3, I=   2, J=  31
     1 CALLS TO GCG PACKAGE FOR TRANSPORT TIME STEP   7 IN FLOW TIME STEP  32 STRESS PERIOD   2
    16 TOTAL ITERATIONS
 
 SOLVING FOR HEAD 
 FLOW MODEL IS TRANSIENT
 FLOW MODEL CONTAINS CONSTANT-HEAD CELLS


 MAXIMUM STEPSIZE DURING WHICH ANY PARTICLE CANNOT MOVE MORE THAN ONE CELL
 = 0.1634    (WHEN MIN. R.F.=1)  AT K=   3, I=   2, J=  29

 MAXIMUM STEPSIZE WHICH MEETS STABILITY CRITERION OF THE ADVECTION TERM
 (FOR PURE FINITE-DIFFERENCE OPTION, MIXELM=0) 
 = 0.1133    (WHEN MIN. R.F.=1)  AT K=   3, I=   2, J=  28


 TOTAL NUMBER OF POINT SOURCES/SINKS PRESENT IN THE FLOW MODEL =   240

 MAXIMUM STEPSIZE WHICH MEETS STABILITY CRITERION OF THE SINK & SOURCE TERM
 = 0.1000E+31(WHEN MIN. R.F.=1)  AT K=   0, I=   0, J=   0

 MAXIMUM STEPSIZE WHICH MEETS STABILITY CRITERION OF THE DISPERSION TERM
 = 0.6203E-02(WHEN MIN. R.F.=1)  AT K=   3, I=   2, J=  31
     1 CALLS TO GCG PACKAGE FOR TRANSPORT TIME STEP   8 IN FLOW TIME STEP  32 STRESS PERIOD   2
    16 TOTAL ITERATIONS
 
 SOLVING FOR HEAD 
 FLOW MODEL IS TRANSIENT
 FLOW MODEL CONTAINS CONSTANT-HEAD CELLS


 MAXIMUM STEPSIZE DURING WHICH ANY PARTICLE CANNOT MOVE MORE THAN ONE CELL
 = 0.1634    (WHEN MIN. R.F.=1)  AT K=   3, I=   2, J=  29

 MAXIMUM STEPSIZE WHICH MEETS STABILITY CRITERION OF THE ADVECTION TERM
 (FOR PURE FINITE-DIFFERENCE OPTION, MIXELM=0) 
 = 0.1133    (WHEN MIN. R.F.=1)  AT K=   3, I=   2, J=  28


 TOTAL NUMBER OF POINT SOURCES/SINKS PRESENT IN THE FLOW MODEL =   240

 MAXIMUM STEPSIZE WHICH MEETS STABILITY CRITERION OF THE SINK & SOURCE TERM
 = 0.1000E+31(WHEN MIN. R.F.=1)  AT K=   0, I=   0, J=   0

 MAXIMUM STEPSIZE WHICH MEETS STABILITY CRITERION OF THE DISPERSION TERM
 = 0.6203E-02(WHEN MIN. R.F.=1)  AT K=   3, I=   2, J=  31
     1 CALLS TO GCG PACKAGE FOR TRANSPORT TIME STEP   9 IN FLOW TIME STEP  32 STRESS PERIOD   2
     7 TOTAL ITERATIONS
  MAXIMUM CONCENTRATION CHANGES FOR EACH ITERATION:
  MAX. CHANGE LAYER,ROW,COL MAX. CHANGE LAYER,ROW,COL MAX. CHANGE LAYER,ROW,COL MAX. CHANGE LAYER,ROW,COL MAX. CHANGE LAYER,ROW,COL
 ------------------------------------------------------------------------------------------------------------------------------------
   0.2713E-03 ( 13,  3, 52)  0.2185E-04 (  6,  1, 57)  0.4329E-05 (  6,  1, 55)  0.1573E-05 (  3,  3, 31)  0.6683E-06 (  3,  3, 30)
   0.3076E-06 (  3,  3, 31)  0.9216E-07 (  3,  3, 30)


                                          ================================================
                                                         FROM TIME =   33.000     TO    34.000    

 
 SOLVING FOR HEAD 
 FLOW MODEL IS TRANSIENT
 FLOW MODEL CONTAINS CONSTANT-HEAD CELLS


 MAXIMUM STEPSIZE DURING WHICH ANY PARTICLE CANNOT MOVE MORE THAN ONE CELL
 = 0.1634    (WHEN MIN. R.F.=1)  AT K=   3, I=   2, J=  29

 MAXIMUM STEPSIZE WHICH MEETS STABILITY CRITERION OF THE ADVECTION TERM
 (FOR PURE FINITE-DIFFERENCE OPTION, MIXELM=0) 
 = 0.1133    (WHEN MIN. R.F.=1)  AT K=   3, I=   2, J=  28


 TOTAL NUMBER OF POINT SOURCES/SINKS PRESENT IN THE FLOW MODEL =   240

 MAXIMUM STEPSIZE WHICH MEETS STABILITY CRITERION OF THE SINK & SOURCE TERM
 = 0.1000E+31(WHEN MIN. R.F.=1)  AT K=   0, I=   0, J=   0

 MAXIMUM STEPSIZE WHICH MEETS STABILITY CRITERION OF THE DISPERSION TERM
 = 0.6203E-02(WHEN MIN. R.F.=1)  AT K=   3, I=   2, J=  31


     1 CALLS TO GCG PACKAGE FOR TRANSPORT TIME STEP   1 IN FLOW TIME STEP  33 STRESS PERIOD   2
    16 TOTAL ITERATIONS

 NO OUTPUT CONTROL FOR STRESS PERIOD    2   TIME STEP  33
 
 SOLVING FOR HEAD 
 FLOW MODEL IS TRANSIENT
 FLOW MODEL CONTAINS CONSTANT-HEAD CELLS


 MAXIMUM STEPSIZE DURING WHICH ANY PARTICLE CANNOT MOVE MORE THAN ONE CELL
 = 0.1634    (WHEN MIN. R.F.=1)  AT K=   3, I=   2, J=  29

 MAXIMUM STEPSIZE WHICH MEETS STABILITY CRITERION OF THE ADVECTION TERM
 (FOR PURE FINITE-DIFFERENCE OPTION, MIXELM=0) 
 = 0.1133    (WHEN MIN. R.F.=1)  AT K=   3, I=   2, J=  28


 TOTAL NUMBER OF POINT SOURCES/SINKS PRESENT IN THE FLOW MODEL =   240

 MAXIMUM STEPSIZE WHICH MEETS STABILITY CRITERION OF THE SINK & SOURCE TERM
 = 0.1000E+31(WHEN MIN. R.F.=1)  AT K=   0, I=   0, J=   0

 MAXIMUM STEPSIZE WHICH MEETS STABILITY CRITERION OF THE DISPERSION TERM
 = 0.6203E-02(WHEN MIN. R.F.=1)  AT K=   3, I=   2, J=  31
     1 CALLS TO GCG PACKAGE FOR TRANSPORT TIME STEP   2 IN FLOW TIME STEP  33 STRESS PERIOD   2
    16 TOTAL ITERATIONS
 
 SOLVING FOR HEAD 
 FLOW MODEL IS TRANSIENT
 FLOW MODEL CONTAINS CONSTANT-HEAD CELLS


 MAXIMUM STEPSIZE DURING WHICH ANY PARTICLE CANNOT MOVE MORE THAN ONE CELL
 = 0.1634    (WHEN MIN. R.F.=1)  AT K=   3, I=   2, J=  29

 MAXIMUM STEPSIZE WHICH MEETS STABILITY CRITERION OF THE ADVECTION TERM
 (FOR PURE FINITE-DIFFERENCE OPTION, MIXELM=0) 
 = 0.1133    (WHEN MIN. R.F.=1)  AT K=   3, I=   2, J=  28


 TOTAL NUMBER OF POINT SOURCES/SINKS PRESENT IN THE FLOW MODEL =   240

 MAXIMUM STEPSIZE WHICH MEETS STABILITY CRITERION OF THE SINK & SOURCE TERM
 = 0.1000E+31(WHEN MIN. R.F.=1)  AT K=   0, I=   0, J=   0

 MAXIMUM STEPSIZE WHICH MEETS STABILITY CRITERION OF THE DISPERSION TERM
 = 0.6203E-02(WHEN MIN. R.F.=1)  AT K=   3, I=   2, J=  31
     1 CALLS TO GCG PACKAGE FOR TRANSPORT TIME STEP   3 IN FLOW TIME STEP  33 STRESS PERIOD   2
    16 TOTAL ITERATIONS
 
 SOLVING FOR HEAD 
 FLOW MODEL IS TRANSIENT
 FLOW MODEL CONTAINS CONSTANT-HEAD CELLS


 MAXIMUM STEPSIZE DURING WHICH ANY PARTICLE CANNOT MOVE MORE THAN ONE CELL
 = 0.1634    (WHEN MIN. R.F.=1)  AT K=   3, I=   2, J=  29

 MAXIMUM STEPSIZE WHICH MEETS STABILITY CRITERION OF THE ADVECTION TERM
 (FOR PURE FINITE-DIFFERENCE OPTION, MIXELM=0) 
 = 0.1133    (WHEN MIN. R.F.=1)  AT K=   3, I=   2, J=  28


 TOTAL NUMBER OF POINT SOURCES/SINKS PRESENT IN THE FLOW MODEL =   240

 MAXIMUM STEPSIZE WHICH MEETS STABILITY CRITERION OF THE SINK & SOURCE TERM
 = 0.1000E+31(WHEN MIN. R.F.=1)  AT K=   0, I=   0, J=   0

 MAXIMUM STEPSIZE WHICH MEETS STABILITY CRITERION OF THE DISPERSION TERM
 = 0.6203E-02(WHEN MIN. R.F.=1)  AT K=   3, I=   2, J=  31
     1 CALLS TO GCG PACKAGE FOR TRANSPORT TIME STEP   4 IN FLOW TIME STEP  33 STRESS PERIOD   2
    16 TOTAL ITERATIONS
 
 SOLVING FOR HEAD 
 FLOW MODEL IS TRANSIENT
 FLOW MODEL CONTAINS CONSTANT-HEAD CELLS


 MAXIMUM STEPSIZE DURING WHICH ANY PARTICLE CANNOT MOVE MORE THAN ONE CELL
 = 0.1634    (WHEN MIN. R.F.=1)  AT K=   3, I=   2, J=  29

 MAXIMUM STEPSIZE WHICH MEETS STABILITY CRITERION OF THE ADVECTION TERM
 (FOR PURE FINITE-DIFFERENCE OPTION, MIXELM=0) 
 = 0.1133    (WHEN MIN. R.F.=1)  AT K=   3, I=   2, J=  28


 TOTAL NUMBER OF POINT SOURCES/SINKS PRESENT IN THE FLOW MODEL =   240

 MAXIMUM STEPSIZE WHICH MEETS STABILITY CRITERION OF THE SINK & SOURCE TERM
 = 0.1000E+31(WHEN MIN. R.F.=1)  AT K=   0, I=   0, J=   0

 MAXIMUM STEPSIZE WHICH MEETS STABILITY CRITERION OF THE DISPERSION TERM
 = 0.6203E-02(WHEN MIN. R.F.=1)  AT K=   3, I=   2, J=  31
     1 CALLS TO GCG PACKAGE FOR TRANSPORT TIME STEP   5 IN FLOW TIME STEP  33 STRESS PERIOD   2
    16 TOTAL ITERATIONS
 
 SOLVING FOR HEAD 
 FLOW MODEL IS TRANSIENT
 FLOW MODEL CONTAINS CONSTANT-HEAD CELLS


 MAXIMUM STEPSIZE DURING WHICH ANY PARTICLE CANNOT MOVE MORE THAN ONE CELL
 = 0.1634    (WHEN MIN. R.F.=1)  AT K=   3, I=   2, J=  29

 MAXIMUM STEPSIZE WHICH MEETS STABILITY CRITERION OF THE ADVECTION TERM
 (FOR PURE FINITE-DIFFERENCE OPTION, MIXELM=0) 
 = 0.1133    (WHEN MIN. R.F.=1)  AT K=   3, I=   2, J=  28


 TOTAL NUMBER OF POINT SOURCES/SINKS PRESENT IN THE FLOW MODEL =   240

 MAXIMUM STEPSIZE WHICH MEETS STABILITY CRITERION OF THE SINK & SOURCE TERM
 = 0.1000E+31(WHEN MIN. R.F.=1)  AT K=   0, I=   0, J=   0

 MAXIMUM STEPSIZE WHICH MEETS STABILITY CRITERION OF THE DISPERSION TERM
 = 0.6203E-02(WHEN MIN. R.F.=1)  AT K=   3, I=   2, J=  31
     1 CALLS TO GCG PACKAGE FOR TRANSPORT TIME STEP   6 IN FLOW TIME STEP  33 STRESS PERIOD   2
    16 TOTAL ITERATIONS
 
 SOLVING FOR HEAD 
 FLOW MODEL IS TRANSIENT
 FLOW MODEL CONTAINS CONSTANT-HEAD CELLS


 MAXIMUM STEPSIZE DURING WHICH ANY PARTICLE CANNOT MOVE MORE THAN ONE CELL
 = 0.1634    (WHEN MIN. R.F.=1)  AT K=   3, I=   2, J=  29

 MAXIMUM STEPSIZE WHICH MEETS STABILITY CRITERION OF THE ADVECTION TERM
 (FOR PURE FINITE-DIFFERENCE OPTION, MIXELM=0) 
 = 0.1133    (WHEN MIN. R.F.=1)  AT K=   3, I=   2, J=  28


 TOTAL NUMBER OF POINT SOURCES/SINKS PRESENT IN THE FLOW MODEL =   240

 MAXIMUM STEPSIZE WHICH MEETS STABILITY CRITERION OF THE SINK & SOURCE TERM
 = 0.1000E+31(WHEN MIN. R.F.=1)  AT K=   0, I=   0, J=   0

 MAXIMUM STEPSIZE WHICH MEETS STABILITY CRITERION OF THE DISPERSION TERM
 = 0.6203E-02(WHEN MIN. R.F.=1)  AT K=   3, I=   2, J=  31
     1 CALLS TO GCG PACKAGE FOR TRANSPORT TIME STEP   7 IN FLOW TIME STEP  33 STRESS PERIOD   2
    16 TOTAL ITERATIONS
 
 SOLVING FOR HEAD 
 FLOW MODEL IS TRANSIENT
 FLOW MODEL CONTAINS CONSTANT-HEAD CELLS


 MAXIMUM STEPSIZE DURING WHICH ANY PARTICLE CANNOT MOVE MORE THAN ONE CELL
 = 0.1634    (WHEN MIN. R.F.=1)  AT K=   3, I=   2, J=  29

 MAXIMUM STEPSIZE WHICH MEETS STABILITY CRITERION OF THE ADVECTION TERM
 (FOR PURE FINITE-DIFFERENCE OPTION, MIXELM=0) 
 = 0.1133    (WHEN MIN. R.F.=1)  AT K=   3, I=   2, J=  28


 TOTAL NUMBER OF POINT SOURCES/SINKS PRESENT IN THE FLOW MODEL =   240

 MAXIMUM STEPSIZE WHICH MEETS STABILITY CRITERION OF THE SINK & SOURCE TERM
 = 0.1000E+31(WHEN MIN. R.F.=1)  AT K=   0, I=   0, J=   0

 MAXIMUM STEPSIZE WHICH MEETS STABILITY CRITERION OF THE DISPERSION TERM
 = 0.6203E-02(WHEN MIN. R.F.=1)  AT K=   3, I=   2, J=  31
     1 CALLS TO GCG PACKAGE FOR TRANSPORT TIME STEP   8 IN FLOW TIME STEP  33 STRESS PERIOD   2
    16 TOTAL ITERATIONS
 
 SOLVING FOR HEAD 
 FLOW MODEL IS TRANSIENT
 FLOW MODEL CONTAINS CONSTANT-HEAD CELLS


 MAXIMUM STEPSIZE DURING WHICH ANY PARTICLE CANNOT MOVE MORE THAN ONE CELL
 = 0.1634    (WHEN MIN. R.F.=1)  AT K=   3, I=   2, J=  29

 MAXIMUM STEPSIZE WHICH MEETS STABILITY CRITERION OF THE ADVECTION TERM
 (FOR PURE FINITE-DIFFERENCE OPTION, MIXELM=0) 
 = 0.1133    (WHEN MIN. R.F.=1)  AT K=   3, I=   2, J=  28


 TOTAL NUMBER OF POINT SOURCES/SINKS PRESENT IN THE FLOW MODEL =   240

 MAXIMUM STEPSIZE WHICH MEETS STABILITY CRITERION OF THE SINK & SOURCE TERM
 = 0.1000E+31(WHEN MIN. R.F.=1)  AT K=   0, I=   0, J=   0

 MAXIMUM STEPSIZE WHICH MEETS STABILITY CRITERION OF THE DISPERSION TERM
 = 0.6203E-02(WHEN MIN. R.F.=1)  AT K=   3, I=   2, J=  31
     1 CALLS TO GCG PACKAGE FOR TRANSPORT TIME STEP   9 IN FLOW TIME STEP  33 STRESS PERIOD   2
     7 TOTAL ITERATIONS
  MAXIMUM CONCENTRATION CHANGES FOR EACH ITERATION:
  MAX. CHANGE LAYER,ROW,COL MAX. CHANGE LAYER,ROW,COL MAX. CHANGE LAYER,ROW,COL MAX. CHANGE LAYER,ROW,COL MAX. CHANGE LAYER,ROW,COL
 ------------------------------------------------------------------------------------------------------------------------------------
   0.2624E-03 ( 13,  3, 52)  0.2072E-04 (  6,  1, 57)  0.4153E-05 (  6,  1, 55)  0.1486E-05 (  3,  3, 31)  0.6338E-06 (  3,  3, 30)
   0.2911E-06 (  3,  3, 31)  0.8785E-07 (  3,  3, 30)


                                          ================================================
                                                         FROM TIME =   34.000     TO    35.000    

 
 SOLVING FOR HEAD 
 FLOW MODEL IS TRANSIENT
 FLOW MODEL CONTAINS CONSTANT-HEAD CELLS


 MAXIMUM STEPSIZE DURING WHICH ANY PARTICLE CANNOT MOVE MORE THAN ONE CELL
 = 0.1634    (WHEN MIN. R.F.=1)  AT K=   3, I=   2, J=  29

 MAXIMUM STEPSIZE WHICH MEETS STABILITY CRITERION OF THE ADVECTION TERM
 (FOR PURE FINITE-DIFFERENCE OPTION, MIXELM=0) 
 = 0.1133    (WHEN MIN. R.F.=1)  AT K=   3, I=   2, J=  28


 TOTAL NUMBER OF POINT SOURCES/SINKS PRESENT IN THE FLOW MODEL =   240

 MAXIMUM STEPSIZE WHICH MEETS STABILITY CRITERION OF THE SINK & SOURCE TERM
 = 0.1000E+31(WHEN MIN. R.F.=1)  AT K=   0, I=   0, J=   0

 MAXIMUM STEPSIZE WHICH MEETS STABILITY CRITERION OF THE DISPERSION TERM
 = 0.6203E-02(WHEN MIN. R.F.=1)  AT K=   3, I=   2, J=  31


     1 CALLS TO GCG PACKAGE FOR TRANSPORT TIME STEP   1 IN FLOW TIME STEP  34 STRESS PERIOD   2
    16 TOTAL ITERATIONS

 NO OUTPUT CONTROL FOR STRESS PERIOD    2   TIME STEP  34
 
 SOLVING FOR HEAD 
 FLOW MODEL IS TRANSIENT
 FLOW MODEL CONTAINS CONSTANT-HEAD CELLS


 MAXIMUM STEPSIZE DURING WHICH ANY PARTICLE CANNOT MOVE MORE THAN ONE CELL
 = 0.1634    (WHEN MIN. R.F.=1)  AT K=   3, I=   2, J=  29

 MAXIMUM STEPSIZE WHICH MEETS STABILITY CRITERION OF THE ADVECTION TERM
 (FOR PURE FINITE-DIFFERENCE OPTION, MIXELM=0) 
 = 0.1133    (WHEN MIN. R.F.=1)  AT K=   3, I=   2, J=  28


 TOTAL NUMBER OF POINT SOURCES/SINKS PRESENT IN THE FLOW MODEL =   240

 MAXIMUM STEPSIZE WHICH MEETS STABILITY CRITERION OF THE SINK & SOURCE TERM
 = 0.1000E+31(WHEN MIN. R.F.=1)  AT K=   0, I=   0, J=   0

 MAXIMUM STEPSIZE WHICH MEETS STABILITY CRITERION OF THE DISPERSION TERM
 = 0.6202E-02(WHEN MIN. R.F.=1)  AT K=   3, I=   2, J=  31
     1 CALLS TO GCG PACKAGE FOR TRANSPORT TIME STEP   2 IN FLOW TIME STEP  34 STRESS PERIOD   2
    16 TOTAL ITERATIONS
 
 SOLVING FOR HEAD 
 FLOW MODEL IS TRANSIENT
 FLOW MODEL CONTAINS CONSTANT-HEAD CELLS


 MAXIMUM STEPSIZE DURING WHICH ANY PARTICLE CANNOT MOVE MORE THAN ONE CELL
 = 0.1634    (WHEN MIN. R.F.=1)  AT K=   3, I=   2, J=  29

 MAXIMUM STEPSIZE WHICH MEETS STABILITY CRITERION OF THE ADVECTION TERM
 (FOR PURE FINITE-DIFFERENCE OPTION, MIXELM=0) 
 = 0.1133    (WHEN MIN. R.F.=1)  AT K=   3, I=   2, J=  28


 TOTAL NUMBER OF POINT SOURCES/SINKS PRESENT IN THE FLOW MODEL =   240

 MAXIMUM STEPSIZE WHICH MEETS STABILITY CRITERION OF THE SINK & SOURCE TERM
 = 0.1000E+31(WHEN MIN. R.F.=1)  AT K=   0, I=   0, J=   0

 MAXIMUM STEPSIZE WHICH MEETS STABILITY CRITERION OF THE DISPERSION TERM
 = 0.6202E-02(WHEN MIN. R.F.=1)  AT K=   3, I=   2, J=  31
     1 CALLS TO GCG PACKAGE FOR TRANSPORT TIME STEP   3 IN FLOW TIME STEP  34 STRESS PERIOD   2
    16 TOTAL ITERATIONS
 
 SOLVING FOR HEAD 
 FLOW MODEL IS TRANSIENT
 FLOW MODEL CONTAINS CONSTANT-HEAD CELLS


 MAXIMUM STEPSIZE DURING WHICH ANY PARTICLE CANNOT MOVE MORE THAN ONE CELL
 = 0.1634    (WHEN MIN. R.F.=1)  AT K=   3, I=   2, J=  29

 MAXIMUM STEPSIZE WHICH MEETS STABILITY CRITERION OF THE ADVECTION TERM
 (FOR PURE FINITE-DIFFERENCE OPTION, MIXELM=0) 
 = 0.1133    (WHEN MIN. R.F.=1)  AT K=   3, I=   2, J=  28


 TOTAL NUMBER OF POINT SOURCES/SINKS PRESENT IN THE FLOW MODEL =   240

 MAXIMUM STEPSIZE WHICH MEETS STABILITY CRITERION OF THE SINK & SOURCE TERM
 = 0.1000E+31(WHEN MIN. R.F.=1)  AT K=   0, I=   0, J=   0

 MAXIMUM STEPSIZE WHICH MEETS STABILITY CRITERION OF THE DISPERSION TERM
 = 0.6202E-02(WHEN MIN. R.F.=1)  AT K=   3, I=   2, J=  31
     1 CALLS TO GCG PACKAGE FOR TRANSPORT TIME STEP   4 IN FLOW TIME STEP  34 STRESS PERIOD   2
    16 TOTAL ITERATIONS
 
 SOLVING FOR HEAD 
 FLOW MODEL IS TRANSIENT
 FLOW MODEL CONTAINS CONSTANT-HEAD CELLS


 MAXIMUM STEPSIZE DURING WHICH ANY PARTICLE CANNOT MOVE MORE THAN ONE CELL
 = 0.1634    (WHEN MIN. R.F.=1)  AT K=   3, I=   2, J=  29

 MAXIMUM STEPSIZE WHICH MEETS STABILITY CRITERION OF THE ADVECTION TERM
 (FOR PURE FINITE-DIFFERENCE OPTION, MIXELM=0) 
 = 0.1133    (WHEN MIN. R.F.=1)  AT K=   3, I=   2, J=  28


 TOTAL NUMBER OF POINT SOURCES/SINKS PRESENT IN THE FLOW MODEL =   240

 MAXIMUM STEPSIZE WHICH MEETS STABILITY CRITERION OF THE SINK & SOURCE TERM
 = 0.1000E+31(WHEN MIN. R.F.=1)  AT K=   0, I=   0, J=   0

 MAXIMUM STEPSIZE WHICH MEETS STABILITY CRITERION OF THE DISPERSION TERM
 = 0.6202E-02(WHEN MIN. R.F.=1)  AT K=   3, I=   2, J=  31
     1 CALLS TO GCG PACKAGE FOR TRANSPORT TIME STEP   5 IN FLOW TIME STEP  34 STRESS PERIOD   2
    16 TOTAL ITERATIONS
 
 SOLVING FOR HEAD 
 FLOW MODEL IS TRANSIENT
 FLOW MODEL CONTAINS CONSTANT-HEAD CELLS


 MAXIMUM STEPSIZE DURING WHICH ANY PARTICLE CANNOT MOVE MORE THAN ONE CELL
 = 0.1634    (WHEN MIN. R.F.=1)  AT K=   3, I=   2, J=  29

 MAXIMUM STEPSIZE WHICH MEETS STABILITY CRITERION OF THE ADVECTION TERM
 (FOR PURE FINITE-DIFFERENCE OPTION, MIXELM=0) 
 = 0.1133    (WHEN MIN. R.F.=1)  AT K=   3, I=   2, J=  28


 TOTAL NUMBER OF POINT SOURCES/SINKS PRESENT IN THE FLOW MODEL =   240

 MAXIMUM STEPSIZE WHICH MEETS STABILITY CRITERION OF THE SINK & SOURCE TERM
 = 0.1000E+31(WHEN MIN. R.F.=1)  AT K=   0, I=   0, J=   0

 MAXIMUM STEPSIZE WHICH MEETS STABILITY CRITERION OF THE DISPERSION TERM
 = 0.6202E-02(WHEN MIN. R.F.=1)  AT K=   3, I=   2, J=  31
     1 CALLS TO GCG PACKAGE FOR TRANSPORT TIME STEP   6 IN FLOW TIME STEP  34 STRESS PERIOD   2
    16 TOTAL ITERATIONS
 
 SOLVING FOR HEAD 
 FLOW MODEL IS TRANSIENT
 FLOW MODEL CONTAINS CONSTANT-HEAD CELLS


 MAXIMUM STEPSIZE DURING WHICH ANY PARTICLE CANNOT MOVE MORE THAN ONE CELL
 = 0.1634    (WHEN MIN. R.F.=1)  AT K=   3, I=   2, J=  29

 MAXIMUM STEPSIZE WHICH MEETS STABILITY CRITERION OF THE ADVECTION TERM
 (FOR PURE FINITE-DIFFERENCE OPTION, MIXELM=0) 
 = 0.1133    (WHEN MIN. R.F.=1)  AT K=   3, I=   2, J=  28


 TOTAL NUMBER OF POINT SOURCES/SINKS PRESENT IN THE FLOW MODEL =   240

 MAXIMUM STEPSIZE WHICH MEETS STABILITY CRITERION OF THE SINK & SOURCE TERM
 = 0.1000E+31(WHEN MIN. R.F.=1)  AT K=   0, I=   0, J=   0

 MAXIMUM STEPSIZE WHICH MEETS STABILITY CRITERION OF THE DISPERSION TERM
 = 0.6202E-02(WHEN MIN. R.F.=1)  AT K=   3, I=   2, J=  31
     1 CALLS TO GCG PACKAGE FOR TRANSPORT TIME STEP   7 IN FLOW TIME STEP  34 STRESS PERIOD   2
    16 TOTAL ITERATIONS
 
 SOLVING FOR HEAD 
 FLOW MODEL IS TRANSIENT
 FLOW MODEL CONTAINS CONSTANT-HEAD CELLS


 MAXIMUM STEPSIZE DURING WHICH ANY PARTICLE CANNOT MOVE MORE THAN ONE CELL
 = 0.1634    (WHEN MIN. R.F.=1)  AT K=   3, I=   2, J=  29

 MAXIMUM STEPSIZE WHICH MEETS STABILITY CRITERION OF THE ADVECTION TERM
 (FOR PURE FINITE-DIFFERENCE OPTION, MIXELM=0) 
 = 0.1133    (WHEN MIN. R.F.=1)  AT K=   3, I=   2, J=  28


 TOTAL NUMBER OF POINT SOURCES/SINKS PRESENT IN THE FLOW MODEL =   240

 MAXIMUM STEPSIZE WHICH MEETS STABILITY CRITERION OF THE SINK & SOURCE TERM
 = 0.1000E+31(WHEN MIN. R.F.=1)  AT K=   0, I=   0, J=   0

 MAXIMUM STEPSIZE WHICH MEETS STABILITY CRITERION OF THE DISPERSION TERM
 = 0.6202E-02(WHEN MIN. R.F.=1)  AT K=   3, I=   2, J=  31
     1 CALLS TO GCG PACKAGE FOR TRANSPORT TIME STEP   8 IN FLOW TIME STEP  34 STRESS PERIOD   2
    16 TOTAL ITERATIONS
 
 SOLVING FOR HEAD 
 FLOW MODEL IS TRANSIENT
 FLOW MODEL CONTAINS CONSTANT-HEAD CELLS


 MAXIMUM STEPSIZE DURING WHICH ANY PARTICLE CANNOT MOVE MORE THAN ONE CELL
 = 0.1634    (WHEN MIN. R.F.=1)  AT K=   3, I=   2, J=  29

 MAXIMUM STEPSIZE WHICH MEETS STABILITY CRITERION OF THE ADVECTION TERM
 (FOR PURE FINITE-DIFFERENCE OPTION, MIXELM=0) 
 = 0.1133    (WHEN MIN. R.F.=1)  AT K=   3, I=   2, J=  28


 TOTAL NUMBER OF POINT SOURCES/SINKS PRESENT IN THE FLOW MODEL =   240

 MAXIMUM STEPSIZE WHICH MEETS STABILITY CRITERION OF THE SINK & SOURCE TERM
 = 0.1000E+31(WHEN MIN. R.F.=1)  AT K=   0, I=   0, J=   0

 MAXIMUM STEPSIZE WHICH MEETS STABILITY CRITERION OF THE DISPERSION TERM
 = 0.6202E-02(WHEN MIN. R.F.=1)  AT K=   3, I=   2, J=  31
     1 CALLS TO GCG PACKAGE FOR TRANSPORT TIME STEP   9 IN FLOW TIME STEP  34 STRESS PERIOD   2
     7 TOTAL ITERATIONS
  MAXIMUM CONCENTRATION CHANGES FOR EACH ITERATION:
  MAX. CHANGE LAYER,ROW,COL MAX. CHANGE LAYER,ROW,COL MAX. CHANGE LAYER,ROW,COL MAX. CHANGE LAYER,ROW,COL MAX. CHANGE LAYER,ROW,COL
 ------------------------------------------------------------------------------------------------------------------------------------
   0.2534E-03 ( 13,  3, 52)  0.1966E-04 (  6,  1, 57)  0.3985E-05 (  6,  1, 55)  0.1407E-05 (  3,  3, 31)  0.6019E-06 (  3,  3, 30)
   0.2758E-06 (  3,  3, 31)  0.8383E-07 (  3,  3, 30)


                                          ================================================
                                                         FROM TIME =   35.000     TO    36.000    

 
 SOLVING FOR HEAD 
 FLOW MODEL IS TRANSIENT
 FLOW MODEL CONTAINS CONSTANT-HEAD CELLS


 MAXIMUM STEPSIZE DURING WHICH ANY PARTICLE CANNOT MOVE MORE THAN ONE CELL
 = 0.1634    (WHEN MIN. R.F.=1)  AT K=   3, I=   2, J=  29

 MAXIMUM STEPSIZE WHICH MEETS STABILITY CRITERION OF THE ADVECTION TERM
 (FOR PURE FINITE-DIFFERENCE OPTION, MIXELM=0) 
 = 0.1133    (WHEN MIN. R.F.=1)  AT K=   3, I=   2, J=  28


 TOTAL NUMBER OF POINT SOURCES/SINKS PRESENT IN THE FLOW MODEL =   240

 MAXIMUM STEPSIZE WHICH MEETS STABILITY CRITERION OF THE SINK & SOURCE TERM
 = 0.1000E+31(WHEN MIN. R.F.=1)  AT K=   0, I=   0, J=   0

 MAXIMUM STEPSIZE WHICH MEETS STABILITY CRITERION OF THE DISPERSION TERM
 = 0.6202E-02(WHEN MIN. R.F.=1)  AT K=   3, I=   2, J=  31


     1 CALLS TO GCG PACKAGE FOR TRANSPORT TIME STEP   1 IN FLOW TIME STEP  35 STRESS PERIOD   2
    16 TOTAL ITERATIONS

 NO OUTPUT CONTROL FOR STRESS PERIOD    2   TIME STEP  35
 
 SOLVING FOR HEAD 
 FLOW MODEL IS TRANSIENT
 FLOW MODEL CONTAINS CONSTANT-HEAD CELLS


 MAXIMUM STEPSIZE DURING WHICH ANY PARTICLE CANNOT MOVE MORE THAN ONE CELL
 = 0.1634    (WHEN MIN. R.F.=1)  AT K=   3, I=   2, J=  29

 MAXIMUM STEPSIZE WHICH MEETS STABILITY CRITERION OF THE ADVECTION TERM
 (FOR PURE FINITE-DIFFERENCE OPTION, MIXELM=0) 
 = 0.1133    (WHEN MIN. R.F.=1)  AT K=   3, I=   2, J=  28


 TOTAL NUMBER OF POINT SOURCES/SINKS PRESENT IN THE FLOW MODEL =   240

 MAXIMUM STEPSIZE WHICH MEETS STABILITY CRITERION OF THE SINK & SOURCE TERM
 = 0.1000E+31(WHEN MIN. R.F.=1)  AT K=   0, I=   0, J=   0

 MAXIMUM STEPSIZE WHICH MEETS STABILITY CRITERION OF THE DISPERSION TERM
 = 0.6202E-02(WHEN MIN. R.F.=1)  AT K=   3, I=   2, J=  31
     1 CALLS TO GCG PACKAGE FOR TRANSPORT TIME STEP   2 IN FLOW TIME STEP  35 STRESS PERIOD   2
    16 TOTAL ITERATIONS
 
 SOLVING FOR HEAD 
 FLOW MODEL IS TRANSIENT
 FLOW MODEL CONTAINS CONSTANT-HEAD CELLS


 MAXIMUM STEPSIZE DURING WHICH ANY PARTICLE CANNOT MOVE MORE THAN ONE CELL
 = 0.1634    (WHEN MIN. R.F.=1)  AT K=   3, I=   2, J=  29

 MAXIMUM STEPSIZE WHICH MEETS STABILITY CRITERION OF THE ADVECTION TERM
 (FOR PURE FINITE-DIFFERENCE OPTION, MIXELM=0) 
 = 0.1133    (WHEN MIN. R.F.=1)  AT K=   3, I=   2, J=  28


 TOTAL NUMBER OF POINT SOURCES/SINKS PRESENT IN THE FLOW MODEL =   240

 MAXIMUM STEPSIZE WHICH MEETS STABILITY CRITERION OF THE SINK & SOURCE TERM
 = 0.1000E+31(WHEN MIN. R.F.=1)  AT K=   0, I=   0, J=   0

 MAXIMUM STEPSIZE WHICH MEETS STABILITY CRITERION OF THE DISPERSION TERM
 = 0.6202E-02(WHEN MIN. R.F.=1)  AT K=   3, I=   2, J=  31
     1 CALLS TO GCG PACKAGE FOR TRANSPORT TIME STEP   3 IN FLOW TIME STEP  35 STRESS PERIOD   2
    16 TOTAL ITERATIONS
 
 SOLVING FOR HEAD 
 FLOW MODEL IS TRANSIENT
 FLOW MODEL CONTAINS CONSTANT-HEAD CELLS


 MAXIMUM STEPSIZE DURING WHICH ANY PARTICLE CANNOT MOVE MORE THAN ONE CELL
 = 0.1634    (WHEN MIN. R.F.=1)  AT K=   3, I=   2, J=  29

 MAXIMUM STEPSIZE WHICH MEETS STABILITY CRITERION OF THE ADVECTION TERM
 (FOR PURE FINITE-DIFFERENCE OPTION, MIXELM=0) 
 = 0.1133    (WHEN MIN. R.F.=1)  AT K=   3, I=   2, J=  28


 TOTAL NUMBER OF POINT SOURCES/SINKS PRESENT IN THE FLOW MODEL =   240

 MAXIMUM STEPSIZE WHICH MEETS STABILITY CRITERION OF THE SINK & SOURCE TERM
 = 0.1000E+31(WHEN MIN. R.F.=1)  AT K=   0, I=   0, J=   0

 MAXIMUM STEPSIZE WHICH MEETS STABILITY CRITERION OF THE DISPERSION TERM
 = 0.6202E-02(WHEN MIN. R.F.=1)  AT K=   3, I=   2, J=  31
     1 CALLS TO GCG PACKAGE FOR TRANSPORT TIME STEP   4 IN FLOW TIME STEP  35 STRESS PERIOD   2
    16 TOTAL ITERATIONS
 
 SOLVING FOR HEAD 
 FLOW MODEL IS TRANSIENT
 FLOW MODEL CONTAINS CONSTANT-HEAD CELLS


 MAXIMUM STEPSIZE DURING WHICH ANY PARTICLE CANNOT MOVE MORE THAN ONE CELL
 = 0.1634    (WHEN MIN. R.F.=1)  AT K=   3, I=   2, J=  29

 MAXIMUM STEPSIZE WHICH MEETS STABILITY CRITERION OF THE ADVECTION TERM
 (FOR PURE FINITE-DIFFERENCE OPTION, MIXELM=0) 
 = 0.1133    (WHEN MIN. R.F.=1)  AT K=   3, I=   2, J=  28


 TOTAL NUMBER OF POINT SOURCES/SINKS PRESENT IN THE FLOW MODEL =   240

 MAXIMUM STEPSIZE WHICH MEETS STABILITY CRITERION OF THE SINK & SOURCE TERM
 = 0.1000E+31(WHEN MIN. R.F.=1)  AT K=   0, I=   0, J=   0

 MAXIMUM STEPSIZE WHICH MEETS STABILITY CRITERION OF THE DISPERSION TERM
 = 0.6202E-02(WHEN MIN. R.F.=1)  AT K=   3, I=   2, J=  31
     1 CALLS TO GCG PACKAGE FOR TRANSPORT TIME STEP   5 IN FLOW TIME STEP  35 STRESS PERIOD   2
    16 TOTAL ITERATIONS
 
 SOLVING FOR HEAD 
 FLOW MODEL IS TRANSIENT
 FLOW MODEL CONTAINS CONSTANT-HEAD CELLS


 MAXIMUM STEPSIZE DURING WHICH ANY PARTICLE CANNOT MOVE MORE THAN ONE CELL
 = 0.1634    (WHEN MIN. R.F.=1)  AT K=   3, I=   2, J=  29

 MAXIMUM STEPSIZE WHICH MEETS STABILITY CRITERION OF THE ADVECTION TERM
 (FOR PURE FINITE-DIFFERENCE OPTION, MIXELM=0) 
 = 0.1133    (WHEN MIN. R.F.=1)  AT K=   3, I=   2, J=  28


 TOTAL NUMBER OF POINT SOURCES/SINKS PRESENT IN THE FLOW MODEL =   240

 MAXIMUM STEPSIZE WHICH MEETS STABILITY CRITERION OF THE SINK & SOURCE TERM
 = 0.1000E+31(WHEN MIN. R.F.=1)  AT K=   0, I=   0, J=   0

 MAXIMUM STEPSIZE WHICH MEETS STABILITY CRITERION OF THE DISPERSION TERM
 = 0.6202E-02(WHEN MIN. R.F.=1)  AT K=   3, I=   2, J=  31
     1 CALLS TO GCG PACKAGE FOR TRANSPORT TIME STEP   6 IN FLOW TIME STEP  35 STRESS PERIOD   2
    16 TOTAL ITERATIONS
 
 SOLVING FOR HEAD 
 FLOW MODEL IS TRANSIENT
 FLOW MODEL CONTAINS CONSTANT-HEAD CELLS


 MAXIMUM STEPSIZE DURING WHICH ANY PARTICLE CANNOT MOVE MORE THAN ONE CELL
 = 0.1634    (WHEN MIN. R.F.=1)  AT K=   3, I=   2, J=  29

 MAXIMUM STEPSIZE WHICH MEETS STABILITY CRITERION OF THE ADVECTION TERM
 (FOR PURE FINITE-DIFFERENCE OPTION, MIXELM=0) 
 = 0.1133    (WHEN MIN. R.F.=1)  AT K=   3, I=   2, J=  28


 TOTAL NUMBER OF POINT SOURCES/SINKS PRESENT IN THE FLOW MODEL =   240

 MAXIMUM STEPSIZE WHICH MEETS STABILITY CRITERION OF THE SINK & SOURCE TERM
 = 0.1000E+31(WHEN MIN. R.F.=1)  AT K=   0, I=   0, J=   0

 MAXIMUM STEPSIZE WHICH MEETS STABILITY CRITERION OF THE DISPERSION TERM
 = 0.6202E-02(WHEN MIN. R.F.=1)  AT K=   3, I=   2, J=  31
     1 CALLS TO GCG PACKAGE FOR TRANSPORT TIME STEP   7 IN FLOW TIME STEP  35 STRESS PERIOD   2
    16 TOTAL ITERATIONS
 
 SOLVING FOR HEAD 
 FLOW MODEL IS TRANSIENT
 FLOW MODEL CONTAINS CONSTANT-HEAD CELLS


 MAXIMUM STEPSIZE DURING WHICH ANY PARTICLE CANNOT MOVE MORE THAN ONE CELL
 = 0.1634    (WHEN MIN. R.F.=1)  AT K=   3, I=   2, J=  29

 MAXIMUM STEPSIZE WHICH MEETS STABILITY CRITERION OF THE ADVECTION TERM
 (FOR PURE FINITE-DIFFERENCE OPTION, MIXELM=0) 
 = 0.1133    (WHEN MIN. R.F.=1)  AT K=   3, I=   2, J=  28


 TOTAL NUMBER OF POINT SOURCES/SINKS PRESENT IN THE FLOW MODEL =   240

 MAXIMUM STEPSIZE WHICH MEETS STABILITY CRITERION OF THE SINK & SOURCE TERM
 = 0.1000E+31(WHEN MIN. R.F.=1)  AT K=   0, I=   0, J=   0

 MAXIMUM STEPSIZE WHICH MEETS STABILITY CRITERION OF THE DISPERSION TERM
 = 0.6202E-02(WHEN MIN. R.F.=1)  AT K=   3, I=   2, J=  31
     1 CALLS TO GCG PACKAGE FOR TRANSPORT TIME STEP   8 IN FLOW TIME STEP  35 STRESS PERIOD   2
    16 TOTAL ITERATIONS
 
 SOLVING FOR HEAD 
 FLOW MODEL IS TRANSIENT
 FLOW MODEL CONTAINS CONSTANT-HEAD CELLS


 MAXIMUM STEPSIZE DURING WHICH ANY PARTICLE CANNOT MOVE MORE THAN ONE CELL
 = 0.1634    (WHEN MIN. R.F.=1)  AT K=   3, I=   2, J=  29

 MAXIMUM STEPSIZE WHICH MEETS STABILITY CRITERION OF THE ADVECTION TERM
 (FOR PURE FINITE-DIFFERENCE OPTION, MIXELM=0) 
 = 0.1133    (WHEN MIN. R.F.=1)  AT K=   3, I=   2, J=  28


 TOTAL NUMBER OF POINT SOURCES/SINKS PRESENT IN THE FLOW MODEL =   240

 MAXIMUM STEPSIZE WHICH MEETS STABILITY CRITERION OF THE SINK & SOURCE TERM
 = 0.1000E+31(WHEN MIN. R.F.=1)  AT K=   0, I=   0, J=   0

 MAXIMUM STEPSIZE WHICH MEETS STABILITY CRITERION OF THE DISPERSION TERM
 = 0.6202E-02(WHEN MIN. R.F.=1)  AT K=   3, I=   2, J=  31
     1 CALLS TO GCG PACKAGE FOR TRANSPORT TIME STEP   9 IN FLOW TIME STEP  35 STRESS PERIOD   2
=======
 = 0.6707E-02(WHEN MIN. R.F.=1)  AT K=   3, I=   2, J=  30
     1 CALLS TO GCG PACKAGE FOR TRANSPORT TIME STEP   8 IN FLOW TIME STEP  29 STRESS PERIOD   2
>>>>>>> Stashed changes
     7 TOTAL ITERATIONS
  MAXIMUM CONCENTRATION CHANGES FOR EACH ITERATION:
  MAX. CHANGE LAYER,ROW,COL MAX. CHANGE LAYER,ROW,COL MAX. CHANGE LAYER,ROW,COL MAX. CHANGE LAYER,ROW,COL MAX. CHANGE LAYER,ROW,COL
 ------------------------------------------------------------------------------------------------------------------------------------
<<<<<<< Updated upstream
   0.2434E-03 ( 13,  3, 52)  0.1875E-04 (  5,  2, 61)  0.3826E-05 (  6,  1, 55)  0.1333E-05 (  3,  3, 31)  0.5725E-06 (  3,  3, 30)
   0.2618E-06 (  3,  3, 31)  0.8009E-07 (  3,  3, 30)


                                          ================================================
                                                         FROM TIME =   36.000     TO    37.000    

 
 SOLVING FOR HEAD 
 FLOW MODEL IS TRANSIENT
 FLOW MODEL CONTAINS CONSTANT-HEAD CELLS


 MAXIMUM STEPSIZE DURING WHICH ANY PARTICLE CANNOT MOVE MORE THAN ONE CELL
 = 0.1634    (WHEN MIN. R.F.=1)  AT K=   3, I=   2, J=  29

 MAXIMUM STEPSIZE WHICH MEETS STABILITY CRITERION OF THE ADVECTION TERM
 (FOR PURE FINITE-DIFFERENCE OPTION, MIXELM=0) 
 = 0.1133    (WHEN MIN. R.F.=1)  AT K=   3, I=   2, J=  28


 TOTAL NUMBER OF POINT SOURCES/SINKS PRESENT IN THE FLOW MODEL =   240

 MAXIMUM STEPSIZE WHICH MEETS STABILITY CRITERION OF THE SINK & SOURCE TERM
 = 0.1000E+31(WHEN MIN. R.F.=1)  AT K=   0, I=   0, J=   0

 MAXIMUM STEPSIZE WHICH MEETS STABILITY CRITERION OF THE DISPERSION TERM
 = 0.6202E-02(WHEN MIN. R.F.=1)  AT K=   3, I=   2, J=  31


     1 CALLS TO GCG PACKAGE FOR TRANSPORT TIME STEP   1 IN FLOW TIME STEP  36 STRESS PERIOD   2
    16 TOTAL ITERATIONS

 NO OUTPUT CONTROL FOR STRESS PERIOD    2   TIME STEP  36
 
 SOLVING FOR HEAD 
 FLOW MODEL IS TRANSIENT
 FLOW MODEL CONTAINS CONSTANT-HEAD CELLS


 MAXIMUM STEPSIZE DURING WHICH ANY PARTICLE CANNOT MOVE MORE THAN ONE CELL
 = 0.1634    (WHEN MIN. R.F.=1)  AT K=   3, I=   2, J=  29

 MAXIMUM STEPSIZE WHICH MEETS STABILITY CRITERION OF THE ADVECTION TERM
 (FOR PURE FINITE-DIFFERENCE OPTION, MIXELM=0) 
 = 0.1133    (WHEN MIN. R.F.=1)  AT K=   3, I=   2, J=  28


 TOTAL NUMBER OF POINT SOURCES/SINKS PRESENT IN THE FLOW MODEL =   240

 MAXIMUM STEPSIZE WHICH MEETS STABILITY CRITERION OF THE SINK & SOURCE TERM
 = 0.1000E+31(WHEN MIN. R.F.=1)  AT K=   0, I=   0, J=   0

 MAXIMUM STEPSIZE WHICH MEETS STABILITY CRITERION OF THE DISPERSION TERM
 = 0.6202E-02(WHEN MIN. R.F.=1)  AT K=   3, I=   2, J=  31
     1 CALLS TO GCG PACKAGE FOR TRANSPORT TIME STEP   2 IN FLOW TIME STEP  36 STRESS PERIOD   2
    16 TOTAL ITERATIONS
 
 SOLVING FOR HEAD 
 FLOW MODEL IS TRANSIENT
 FLOW MODEL CONTAINS CONSTANT-HEAD CELLS


 MAXIMUM STEPSIZE DURING WHICH ANY PARTICLE CANNOT MOVE MORE THAN ONE CELL
 = 0.1634    (WHEN MIN. R.F.=1)  AT K=   3, I=   2, J=  29

 MAXIMUM STEPSIZE WHICH MEETS STABILITY CRITERION OF THE ADVECTION TERM
 (FOR PURE FINITE-DIFFERENCE OPTION, MIXELM=0) 
 = 0.1133    (WHEN MIN. R.F.=1)  AT K=   3, I=   2, J=  28


 TOTAL NUMBER OF POINT SOURCES/SINKS PRESENT IN THE FLOW MODEL =   240

 MAXIMUM STEPSIZE WHICH MEETS STABILITY CRITERION OF THE SINK & SOURCE TERM
 = 0.1000E+31(WHEN MIN. R.F.=1)  AT K=   0, I=   0, J=   0

 MAXIMUM STEPSIZE WHICH MEETS STABILITY CRITERION OF THE DISPERSION TERM
 = 0.6202E-02(WHEN MIN. R.F.=1)  AT K=   3, I=   2, J=  31
     1 CALLS TO GCG PACKAGE FOR TRANSPORT TIME STEP   3 IN FLOW TIME STEP  36 STRESS PERIOD   2
    16 TOTAL ITERATIONS
 
 SOLVING FOR HEAD 
 FLOW MODEL IS TRANSIENT
 FLOW MODEL CONTAINS CONSTANT-HEAD CELLS


 MAXIMUM STEPSIZE DURING WHICH ANY PARTICLE CANNOT MOVE MORE THAN ONE CELL
 = 0.1634    (WHEN MIN. R.F.=1)  AT K=   3, I=   2, J=  29

 MAXIMUM STEPSIZE WHICH MEETS STABILITY CRITERION OF THE ADVECTION TERM
 (FOR PURE FINITE-DIFFERENCE OPTION, MIXELM=0) 
 = 0.1133    (WHEN MIN. R.F.=1)  AT K=   3, I=   2, J=  28


 TOTAL NUMBER OF POINT SOURCES/SINKS PRESENT IN THE FLOW MODEL =   240

 MAXIMUM STEPSIZE WHICH MEETS STABILITY CRITERION OF THE SINK & SOURCE TERM
 = 0.1000E+31(WHEN MIN. R.F.=1)  AT K=   0, I=   0, J=   0

 MAXIMUM STEPSIZE WHICH MEETS STABILITY CRITERION OF THE DISPERSION TERM
 = 0.6202E-02(WHEN MIN. R.F.=1)  AT K=   3, I=   2, J=  31
     1 CALLS TO GCG PACKAGE FOR TRANSPORT TIME STEP   4 IN FLOW TIME STEP  36 STRESS PERIOD   2
    16 TOTAL ITERATIONS
=======
   0.2620E-03 ( 13,  2, 54)  0.1784E-04 (  6,  1, 52)  0.4386E-05 (  4,  2, 44)  0.1601E-05 (  3,  2, 37)  0.4011E-06 (  4,  1, 31)
   0.1521E-06 (  3,  1, 31)  0.3785E-07 (  4,  3, 27)
 UBDSV1 SAVING "         STORAGE" ON UNIT  53 AT TIME STEP 29, STRESS PERIOD   2
 UBDSV2 SAVING "   CONSTANT HEAD" ON UNIT  53 AT TIME STEP 29, STRESS PERIOD   2
 UBDSV1 SAVING "FLOW RIGHT FACE " ON UNIT  53 AT TIME STEP 29, STRESS PERIOD   2
 UBDSV1 SAVING "FLOW FRONT FACE " ON UNIT  53 AT TIME STEP 29, STRESS PERIOD   2
 UBDSV1 SAVING "FLOW LOWER FACE " ON UNIT  53 AT TIME STEP 29, STRESS PERIOD   2
 UBDSV1 SAVING "            DCDT" ON UNIT  53 AT TIME STEP 29, STRESS PERIOD   2
0WARNING: NUMERICAL OSCILLATION ENCOUNTERED
 ONE OR MORE CELL CONCENTRATIONS LESS THAN CRHOREF
 SMALLEST DENSITY =  0.100E+04
 AT CELL (I,J,K) = (   3,  59,  27)


 HEAD WILL BE SAVED ON UNIT   51 AT END OF TIME STEP  29, STRESS PERIOD    2


                                          ================================================
                                                         FROM TIME =   30.000     TO    31.000    

>>>>>>> Stashed changes
 
 SOLVING FOR HEAD 
 FLOW MODEL IS TRANSIENT
 FLOW MODEL CONTAINS CONSTANT-HEAD CELLS


 MAXIMUM STEPSIZE DURING WHICH ANY PARTICLE CANNOT MOVE MORE THAN ONE CELL
<<<<<<< Updated upstream
 = 0.1634    (WHEN MIN. R.F.=1)  AT K=   3, I=   2, J=  29

 MAXIMUM STEPSIZE WHICH MEETS STABILITY CRITERION OF THE ADVECTION TERM
 (FOR PURE FINITE-DIFFERENCE OPTION, MIXELM=0) 
 = 0.1133    (WHEN MIN. R.F.=1)  AT K=   3, I=   2, J=  28
=======
 = 0.1871    (WHEN MIN. R.F.=1)  AT K=   3, I=   2, J=  31

 MAXIMUM STEPSIZE WHICH MEETS STABILITY CRITERION OF THE ADVECTION TERM
 (FOR PURE FINITE-DIFFERENCE OPTION, MIXELM=0) 
 = 0.1250    (WHEN MIN. R.F.=1)  AT K=   3, I=   2, J=  30
>>>>>>> Stashed changes


 TOTAL NUMBER OF POINT SOURCES/SINKS PRESENT IN THE FLOW MODEL =   240

 MAXIMUM STEPSIZE WHICH MEETS STABILITY CRITERION OF THE SINK & SOURCE TERM
 = 0.1000E+31(WHEN MIN. R.F.=1)  AT K=   0, I=   0, J=   0

 MAXIMUM STEPSIZE WHICH MEETS STABILITY CRITERION OF THE DISPERSION TERM
<<<<<<< Updated upstream
 = 0.6202E-02(WHEN MIN. R.F.=1)  AT K=   3, I=   2, J=  31
     1 CALLS TO GCG PACKAGE FOR TRANSPORT TIME STEP   5 IN FLOW TIME STEP  36 STRESS PERIOD   2
    16 TOTAL ITERATIONS
 
 SOLVING FOR HEAD 
 FLOW MODEL IS TRANSIENT
 FLOW MODEL CONTAINS CONSTANT-HEAD CELLS


 MAXIMUM STEPSIZE DURING WHICH ANY PARTICLE CANNOT MOVE MORE THAN ONE CELL
 = 0.1634    (WHEN MIN. R.F.=1)  AT K=   3, I=   2, J=  29

 MAXIMUM STEPSIZE WHICH MEETS STABILITY CRITERION OF THE ADVECTION TERM
 (FOR PURE FINITE-DIFFERENCE OPTION, MIXELM=0) 
 = 0.1133    (WHEN MIN. R.F.=1)  AT K=   3, I=   2, J=  28


 TOTAL NUMBER OF POINT SOURCES/SINKS PRESENT IN THE FLOW MODEL =   240

 MAXIMUM STEPSIZE WHICH MEETS STABILITY CRITERION OF THE SINK & SOURCE TERM
 = 0.1000E+31(WHEN MIN. R.F.=1)  AT K=   0, I=   0, J=   0

 MAXIMUM STEPSIZE WHICH MEETS STABILITY CRITERION OF THE DISPERSION TERM
 = 0.6202E-02(WHEN MIN. R.F.=1)  AT K=   3, I=   2, J=  31
     1 CALLS TO GCG PACKAGE FOR TRANSPORT TIME STEP   6 IN FLOW TIME STEP  36 STRESS PERIOD   2
    16 TOTAL ITERATIONS
=======
 = 0.6707E-02(WHEN MIN. R.F.=1)  AT K=   3, I=   2, J=  30


     1 CALLS TO GCG PACKAGE FOR TRANSPORT TIME STEP   1 IN FLOW TIME STEP  30 STRESS PERIOD   2
    18 TOTAL ITERATIONS

 OUTPUT CONTROL FOR STRESS PERIOD    2   TIME STEP  30
    SAVE HEAD FOR ALL LAYERS
    SAVE BUDGET
0WARNING: NUMERICAL OSCILLATION ENCOUNTERED
 ONE OR MORE CELL CONCENTRATIONS LESS THAN CRHOREF
 SMALLEST DENSITY =  0.100E+04
 AT CELL (I,J,K) = (   3,  59,  27)

>>>>>>> Stashed changes
 
 SOLVING FOR HEAD 
 FLOW MODEL IS TRANSIENT
 FLOW MODEL CONTAINS CONSTANT-HEAD CELLS


 MAXIMUM STEPSIZE DURING WHICH ANY PARTICLE CANNOT MOVE MORE THAN ONE CELL
<<<<<<< Updated upstream
 = 0.1634    (WHEN MIN. R.F.=1)  AT K=   3, I=   2, J=  29

 MAXIMUM STEPSIZE WHICH MEETS STABILITY CRITERION OF THE ADVECTION TERM
 (FOR PURE FINITE-DIFFERENCE OPTION, MIXELM=0) 
 = 0.1133    (WHEN MIN. R.F.=1)  AT K=   3, I=   2, J=  28
=======
 = 0.1871    (WHEN MIN. R.F.=1)  AT K=   3, I=   2, J=  31

 MAXIMUM STEPSIZE WHICH MEETS STABILITY CRITERION OF THE ADVECTION TERM
 (FOR PURE FINITE-DIFFERENCE OPTION, MIXELM=0) 
 = 0.1250    (WHEN MIN. R.F.=1)  AT K=   3, I=   2, J=  30
>>>>>>> Stashed changes


 TOTAL NUMBER OF POINT SOURCES/SINKS PRESENT IN THE FLOW MODEL =   240

 MAXIMUM STEPSIZE WHICH MEETS STABILITY CRITERION OF THE SINK & SOURCE TERM
 = 0.1000E+31(WHEN MIN. R.F.=1)  AT K=   0, I=   0, J=   0

 MAXIMUM STEPSIZE WHICH MEETS STABILITY CRITERION OF THE DISPERSION TERM
<<<<<<< Updated upstream
 = 0.6202E-02(WHEN MIN. R.F.=1)  AT K=   3, I=   2, J=  31
     1 CALLS TO GCG PACKAGE FOR TRANSPORT TIME STEP   7 IN FLOW TIME STEP  36 STRESS PERIOD   2
    16 TOTAL ITERATIONS
=======
 = 0.6707E-02(WHEN MIN. R.F.=1)  AT K=   3, I=   2, J=  30
     1 CALLS TO GCG PACKAGE FOR TRANSPORT TIME STEP   2 IN FLOW TIME STEP  30 STRESS PERIOD   2
    18 TOTAL ITERATIONS
0WARNING: NUMERICAL OSCILLATION ENCOUNTERED
 ONE OR MORE CELL CONCENTRATIONS LESS THAN CRHOREF
 SMALLEST DENSITY =  0.100E+04
 AT CELL (I,J,K) = (   3,  59,  27)

>>>>>>> Stashed changes
 
 SOLVING FOR HEAD 
 FLOW MODEL IS TRANSIENT
 FLOW MODEL CONTAINS CONSTANT-HEAD CELLS


 MAXIMUM STEPSIZE DURING WHICH ANY PARTICLE CANNOT MOVE MORE THAN ONE CELL
<<<<<<< Updated upstream
 = 0.1634    (WHEN MIN. R.F.=1)  AT K=   3, I=   2, J=  29

 MAXIMUM STEPSIZE WHICH MEETS STABILITY CRITERION OF THE ADVECTION TERM
 (FOR PURE FINITE-DIFFERENCE OPTION, MIXELM=0) 
 = 0.1133    (WHEN MIN. R.F.=1)  AT K=   3, I=   2, J=  28
=======
 = 0.1871    (WHEN MIN. R.F.=1)  AT K=   3, I=   2, J=  31

 MAXIMUM STEPSIZE WHICH MEETS STABILITY CRITERION OF THE ADVECTION TERM
 (FOR PURE FINITE-DIFFERENCE OPTION, MIXELM=0) 
 = 0.1250    (WHEN MIN. R.F.=1)  AT K=   3, I=   2, J=  30
>>>>>>> Stashed changes


 TOTAL NUMBER OF POINT SOURCES/SINKS PRESENT IN THE FLOW MODEL =   240

 MAXIMUM STEPSIZE WHICH MEETS STABILITY CRITERION OF THE SINK & SOURCE TERM
 = 0.1000E+31(WHEN MIN. R.F.=1)  AT K=   0, I=   0, J=   0

 MAXIMUM STEPSIZE WHICH MEETS STABILITY CRITERION OF THE DISPERSION TERM
<<<<<<< Updated upstream
 = 0.6202E-02(WHEN MIN. R.F.=1)  AT K=   3, I=   2, J=  31
     1 CALLS TO GCG PACKAGE FOR TRANSPORT TIME STEP   8 IN FLOW TIME STEP  36 STRESS PERIOD   2
    16 TOTAL ITERATIONS
=======
 = 0.6707E-02(WHEN MIN. R.F.=1)  AT K=   3, I=   2, J=  30
     1 CALLS TO GCG PACKAGE FOR TRANSPORT TIME STEP   3 IN FLOW TIME STEP  30 STRESS PERIOD   2
    18 TOTAL ITERATIONS
0WARNING: NUMERICAL OSCILLATION ENCOUNTERED
 ONE OR MORE CELL CONCENTRATIONS LESS THAN CRHOREF
 SMALLEST DENSITY =  0.100E+04
 AT CELL (I,J,K) = (   3,  59,  27)

>>>>>>> Stashed changes
 
 SOLVING FOR HEAD 
 FLOW MODEL IS TRANSIENT
 FLOW MODEL CONTAINS CONSTANT-HEAD CELLS


 MAXIMUM STEPSIZE DURING WHICH ANY PARTICLE CANNOT MOVE MORE THAN ONE CELL
<<<<<<< Updated upstream
 = 0.1634    (WHEN MIN. R.F.=1)  AT K=   3, I=   2, J=  29

 MAXIMUM STEPSIZE WHICH MEETS STABILITY CRITERION OF THE ADVECTION TERM
 (FOR PURE FINITE-DIFFERENCE OPTION, MIXELM=0) 
 = 0.1133    (WHEN MIN. R.F.=1)  AT K=   3, I=   2, J=  28
=======
 = 0.1871    (WHEN MIN. R.F.=1)  AT K=   3, I=   2, J=  31

 MAXIMUM STEPSIZE WHICH MEETS STABILITY CRITERION OF THE ADVECTION TERM
 (FOR PURE FINITE-DIFFERENCE OPTION, MIXELM=0) 
 = 0.1250    (WHEN MIN. R.F.=1)  AT K=   3, I=   2, J=  30
>>>>>>> Stashed changes


 TOTAL NUMBER OF POINT SOURCES/SINKS PRESENT IN THE FLOW MODEL =   240

 MAXIMUM STEPSIZE WHICH MEETS STABILITY CRITERION OF THE SINK & SOURCE TERM
 = 0.1000E+31(WHEN MIN. R.F.=1)  AT K=   0, I=   0, J=   0

 MAXIMUM STEPSIZE WHICH MEETS STABILITY CRITERION OF THE DISPERSION TERM
<<<<<<< Updated upstream
 = 0.6202E-02(WHEN MIN. R.F.=1)  AT K=   3, I=   2, J=  31
     1 CALLS TO GCG PACKAGE FOR TRANSPORT TIME STEP   9 IN FLOW TIME STEP  36 STRESS PERIOD   2
     7 TOTAL ITERATIONS
  MAXIMUM CONCENTRATION CHANGES FOR EACH ITERATION:
  MAX. CHANGE LAYER,ROW,COL MAX. CHANGE LAYER,ROW,COL MAX. CHANGE LAYER,ROW,COL MAX. CHANGE LAYER,ROW,COL MAX. CHANGE LAYER,ROW,COL
 ------------------------------------------------------------------------------------------------------------------------------------
   0.2332E-03 ( 13,  3, 52)  0.1795E-04 (  5,  2, 61)  0.3674E-05 (  6,  1, 55)  0.1265E-05 (  3,  3, 31)  0.5453E-06 (  3,  3, 30)
   0.2488E-06 (  3,  3, 31)  0.7660E-07 (  3,  3, 30)


                                          ================================================
                                                         FROM TIME =   37.000     TO    38.000    
=======
 = 0.6707E-02(WHEN MIN. R.F.=1)  AT K=   3, I=   2, J=  30
     1 CALLS TO GCG PACKAGE FOR TRANSPORT TIME STEP   4 IN FLOW TIME STEP  30 STRESS PERIOD   2
    18 TOTAL ITERATIONS
0WARNING: NUMERICAL OSCILLATION ENCOUNTERED
 ONE OR MORE CELL CONCENTRATIONS LESS THAN CRHOREF
 SMALLEST DENSITY =  0.100E+04
 AT CELL (I,J,K) = (   3,  59,  27)
>>>>>>> Stashed changes

 
 SOLVING FOR HEAD 
 FLOW MODEL IS TRANSIENT
 FLOW MODEL CONTAINS CONSTANT-HEAD CELLS


 MAXIMUM STEPSIZE DURING WHICH ANY PARTICLE CANNOT MOVE MORE THAN ONE CELL
<<<<<<< Updated upstream
 = 0.1634    (WHEN MIN. R.F.=1)  AT K=   3, I=   2, J=  29

 MAXIMUM STEPSIZE WHICH MEETS STABILITY CRITERION OF THE ADVECTION TERM
 (FOR PURE FINITE-DIFFERENCE OPTION, MIXELM=0) 
 = 0.1133    (WHEN MIN. R.F.=1)  AT K=   3, I=   2, J=  28
=======
 = 0.1871    (WHEN MIN. R.F.=1)  AT K=   3, I=   2, J=  31

 MAXIMUM STEPSIZE WHICH MEETS STABILITY CRITERION OF THE ADVECTION TERM
 (FOR PURE FINITE-DIFFERENCE OPTION, MIXELM=0) 
 = 0.1250    (WHEN MIN. R.F.=1)  AT K=   3, I=   2, J=  30
>>>>>>> Stashed changes


 TOTAL NUMBER OF POINT SOURCES/SINKS PRESENT IN THE FLOW MODEL =   240

 MAXIMUM STEPSIZE WHICH MEETS STABILITY CRITERION OF THE SINK & SOURCE TERM
 = 0.1000E+31(WHEN MIN. R.F.=1)  AT K=   0, I=   0, J=   0

 MAXIMUM STEPSIZE WHICH MEETS STABILITY CRITERION OF THE DISPERSION TERM
<<<<<<< Updated upstream
 = 0.6202E-02(WHEN MIN. R.F.=1)  AT K=   3, I=   2, J=  31


     1 CALLS TO GCG PACKAGE FOR TRANSPORT TIME STEP   1 IN FLOW TIME STEP  37 STRESS PERIOD   2
    16 TOTAL ITERATIONS

 NO OUTPUT CONTROL FOR STRESS PERIOD    2   TIME STEP  37
=======
 = 0.6707E-02(WHEN MIN. R.F.=1)  AT K=   3, I=   2, J=  30
     1 CALLS TO GCG PACKAGE FOR TRANSPORT TIME STEP   5 IN FLOW TIME STEP  30 STRESS PERIOD   2
    18 TOTAL ITERATIONS
0WARNING: NUMERICAL OSCILLATION ENCOUNTERED
 ONE OR MORE CELL CONCENTRATIONS LESS THAN CRHOREF
 SMALLEST DENSITY =  0.100E+04
 AT CELL (I,J,K) = (   3,  59,  27)

>>>>>>> Stashed changes
 
 SOLVING FOR HEAD 
 FLOW MODEL IS TRANSIENT
 FLOW MODEL CONTAINS CONSTANT-HEAD CELLS


 MAXIMUM STEPSIZE DURING WHICH ANY PARTICLE CANNOT MOVE MORE THAN ONE CELL
<<<<<<< Updated upstream
 = 0.1634    (WHEN MIN. R.F.=1)  AT K=   3, I=   2, J=  29

 MAXIMUM STEPSIZE WHICH MEETS STABILITY CRITERION OF THE ADVECTION TERM
 (FOR PURE FINITE-DIFFERENCE OPTION, MIXELM=0) 
 = 0.1133    (WHEN MIN. R.F.=1)  AT K=   3, I=   2, J=  28
=======
 = 0.1871    (WHEN MIN. R.F.=1)  AT K=   3, I=   2, J=  31

 MAXIMUM STEPSIZE WHICH MEETS STABILITY CRITERION OF THE ADVECTION TERM
 (FOR PURE FINITE-DIFFERENCE OPTION, MIXELM=0) 
 = 0.1250    (WHEN MIN. R.F.=1)  AT K=   3, I=   2, J=  30
>>>>>>> Stashed changes


 TOTAL NUMBER OF POINT SOURCES/SINKS PRESENT IN THE FLOW MODEL =   240

 MAXIMUM STEPSIZE WHICH MEETS STABILITY CRITERION OF THE SINK & SOURCE TERM
 = 0.1000E+31(WHEN MIN. R.F.=1)  AT K=   0, I=   0, J=   0

 MAXIMUM STEPSIZE WHICH MEETS STABILITY CRITERION OF THE DISPERSION TERM
<<<<<<< Updated upstream
 = 0.6202E-02(WHEN MIN. R.F.=1)  AT K=   3, I=   2, J=  31
     1 CALLS TO GCG PACKAGE FOR TRANSPORT TIME STEP   2 IN FLOW TIME STEP  37 STRESS PERIOD   2
    16 TOTAL ITERATIONS
=======
 = 0.6707E-02(WHEN MIN. R.F.=1)  AT K=   3, I=   2, J=  30
     1 CALLS TO GCG PACKAGE FOR TRANSPORT TIME STEP   6 IN FLOW TIME STEP  30 STRESS PERIOD   2
    18 TOTAL ITERATIONS
0WARNING: NUMERICAL OSCILLATION ENCOUNTERED
 ONE OR MORE CELL CONCENTRATIONS LESS THAN CRHOREF
 SMALLEST DENSITY =  0.100E+04
 AT CELL (I,J,K) = (   3,  59,  27)

>>>>>>> Stashed changes
 
 SOLVING FOR HEAD 
 FLOW MODEL IS TRANSIENT
 FLOW MODEL CONTAINS CONSTANT-HEAD CELLS


 MAXIMUM STEPSIZE DURING WHICH ANY PARTICLE CANNOT MOVE MORE THAN ONE CELL
<<<<<<< Updated upstream
 = 0.1634    (WHEN MIN. R.F.=1)  AT K=   3, I=   2, J=  29

 MAXIMUM STEPSIZE WHICH MEETS STABILITY CRITERION OF THE ADVECTION TERM
 (FOR PURE FINITE-DIFFERENCE OPTION, MIXELM=0) 
 = 0.1133    (WHEN MIN. R.F.=1)  AT K=   3, I=   2, J=  28
=======
 = 0.1871    (WHEN MIN. R.F.=1)  AT K=   3, I=   2, J=  31

 MAXIMUM STEPSIZE WHICH MEETS STABILITY CRITERION OF THE ADVECTION TERM
 (FOR PURE FINITE-DIFFERENCE OPTION, MIXELM=0) 
 = 0.1250    (WHEN MIN. R.F.=1)  AT K=   3, I=   2, J=  30
>>>>>>> Stashed changes


 TOTAL NUMBER OF POINT SOURCES/SINKS PRESENT IN THE FLOW MODEL =   240

 MAXIMUM STEPSIZE WHICH MEETS STABILITY CRITERION OF THE SINK & SOURCE TERM
 = 0.1000E+31(WHEN MIN. R.F.=1)  AT K=   0, I=   0, J=   0

 MAXIMUM STEPSIZE WHICH MEETS STABILITY CRITERION OF THE DISPERSION TERM
<<<<<<< Updated upstream
 = 0.6202E-02(WHEN MIN. R.F.=1)  AT K=   3, I=   2, J=  31
     1 CALLS TO GCG PACKAGE FOR TRANSPORT TIME STEP   3 IN FLOW TIME STEP  37 STRESS PERIOD   2
    16 TOTAL ITERATIONS
=======
 = 0.6707E-02(WHEN MIN. R.F.=1)  AT K=   3, I=   2, J=  30
     1 CALLS TO GCG PACKAGE FOR TRANSPORT TIME STEP   7 IN FLOW TIME STEP  30 STRESS PERIOD   2
    18 TOTAL ITERATIONS
0WARNING: NUMERICAL OSCILLATION ENCOUNTERED
 ONE OR MORE CELL CONCENTRATIONS LESS THAN CRHOREF
 SMALLEST DENSITY =  0.100E+04
 AT CELL (I,J,K) = (   3,  59,  27)

>>>>>>> Stashed changes
 
 SOLVING FOR HEAD 
 FLOW MODEL IS TRANSIENT
 FLOW MODEL CONTAINS CONSTANT-HEAD CELLS


 MAXIMUM STEPSIZE DURING WHICH ANY PARTICLE CANNOT MOVE MORE THAN ONE CELL
<<<<<<< Updated upstream
 = 0.1634    (WHEN MIN. R.F.=1)  AT K=   3, I=   2, J=  29

 MAXIMUM STEPSIZE WHICH MEETS STABILITY CRITERION OF THE ADVECTION TERM
 (FOR PURE FINITE-DIFFERENCE OPTION, MIXELM=0) 
 = 0.1133    (WHEN MIN. R.F.=1)  AT K=   3, I=   2, J=  28
=======
 = 0.1871    (WHEN MIN. R.F.=1)  AT K=   3, I=   2, J=  31

 MAXIMUM STEPSIZE WHICH MEETS STABILITY CRITERION OF THE ADVECTION TERM
 (FOR PURE FINITE-DIFFERENCE OPTION, MIXELM=0) 
 = 0.1250    (WHEN MIN. R.F.=1)  AT K=   3, I=   2, J=  30
>>>>>>> Stashed changes


 TOTAL NUMBER OF POINT SOURCES/SINKS PRESENT IN THE FLOW MODEL =   240

 MAXIMUM STEPSIZE WHICH MEETS STABILITY CRITERION OF THE SINK & SOURCE TERM
 = 0.1000E+31(WHEN MIN. R.F.=1)  AT K=   0, I=   0, J=   0

 MAXIMUM STEPSIZE WHICH MEETS STABILITY CRITERION OF THE DISPERSION TERM
<<<<<<< Updated upstream
 = 0.6202E-02(WHEN MIN. R.F.=1)  AT K=   3, I=   2, J=  31
     1 CALLS TO GCG PACKAGE FOR TRANSPORT TIME STEP   4 IN FLOW TIME STEP  37 STRESS PERIOD   2
    16 TOTAL ITERATIONS
 
 SOLVING FOR HEAD 
 FLOW MODEL IS TRANSIENT
 FLOW MODEL CONTAINS CONSTANT-HEAD CELLS


 MAXIMUM STEPSIZE DURING WHICH ANY PARTICLE CANNOT MOVE MORE THAN ONE CELL
 = 0.1634    (WHEN MIN. R.F.=1)  AT K=   3, I=   2, J=  29

 MAXIMUM STEPSIZE WHICH MEETS STABILITY CRITERION OF THE ADVECTION TERM
 (FOR PURE FINITE-DIFFERENCE OPTION, MIXELM=0) 
 = 0.1133    (WHEN MIN. R.F.=1)  AT K=   3, I=   2, J=  28


 TOTAL NUMBER OF POINT SOURCES/SINKS PRESENT IN THE FLOW MODEL =   240

 MAXIMUM STEPSIZE WHICH MEETS STABILITY CRITERION OF THE SINK & SOURCE TERM
 = 0.1000E+31(WHEN MIN. R.F.=1)  AT K=   0, I=   0, J=   0

 MAXIMUM STEPSIZE WHICH MEETS STABILITY CRITERION OF THE DISPERSION TERM
 = 0.6201E-02(WHEN MIN. R.F.=1)  AT K=   3, I=   2, J=  31
     1 CALLS TO GCG PACKAGE FOR TRANSPORT TIME STEP   5 IN FLOW TIME STEP  37 STRESS PERIOD   2
    16 TOTAL ITERATIONS
=======
 = 0.6707E-02(WHEN MIN. R.F.=1)  AT K=   3, I=   2, J=  30
     1 CALLS TO GCG PACKAGE FOR TRANSPORT TIME STEP   8 IN FLOW TIME STEP  30 STRESS PERIOD   2
     7 TOTAL ITERATIONS
  MAXIMUM CONCENTRATION CHANGES FOR EACH ITERATION:
  MAX. CHANGE LAYER,ROW,COL MAX. CHANGE LAYER,ROW,COL MAX. CHANGE LAYER,ROW,COL MAX. CHANGE LAYER,ROW,COL MAX. CHANGE LAYER,ROW,COL
 ------------------------------------------------------------------------------------------------------------------------------------
   0.2535E-03 ( 13,  2, 54)  0.1680E-04 (  6,  1, 52)  0.4109E-05 (  4,  2, 44)  0.1500E-05 (  3,  2, 37)  0.3776E-06 (  4,  1, 31)
   0.1433E-06 (  3,  1, 31)  0.3583E-07 (  4,  3, 27)
 UBDSV1 SAVING "         STORAGE" ON UNIT  53 AT TIME STEP 30, STRESS PERIOD   2
 UBDSV2 SAVING "   CONSTANT HEAD" ON UNIT  53 AT TIME STEP 30, STRESS PERIOD   2
 UBDSV1 SAVING "FLOW RIGHT FACE " ON UNIT  53 AT TIME STEP 30, STRESS PERIOD   2
 UBDSV1 SAVING "FLOW FRONT FACE " ON UNIT  53 AT TIME STEP 30, STRESS PERIOD   2
 UBDSV1 SAVING "FLOW LOWER FACE " ON UNIT  53 AT TIME STEP 30, STRESS PERIOD   2
 UBDSV1 SAVING "            DCDT" ON UNIT  53 AT TIME STEP 30, STRESS PERIOD   2
0WARNING: NUMERICAL OSCILLATION ENCOUNTERED
 ONE OR MORE CELL CONCENTRATIONS LESS THAN CRHOREF
 SMALLEST DENSITY =  0.100E+04
 AT CELL (I,J,K) = (   3,  59,  27)


 HEAD WILL BE SAVED ON UNIT   51 AT END OF TIME STEP  30, STRESS PERIOD    2


                                          ================================================
                                                         FROM TIME =   31.000     TO    32.000    

>>>>>>> Stashed changes
 
 SOLVING FOR HEAD 
 FLOW MODEL IS TRANSIENT
 FLOW MODEL CONTAINS CONSTANT-HEAD CELLS


 MAXIMUM STEPSIZE DURING WHICH ANY PARTICLE CANNOT MOVE MORE THAN ONE CELL
<<<<<<< Updated upstream
 = 0.1634    (WHEN MIN. R.F.=1)  AT K=   3, I=   2, J=  29

 MAXIMUM STEPSIZE WHICH MEETS STABILITY CRITERION OF THE ADVECTION TERM
 (FOR PURE FINITE-DIFFERENCE OPTION, MIXELM=0) 
 = 0.1133    (WHEN MIN. R.F.=1)  AT K=   3, I=   2, J=  28
=======
 = 0.1871    (WHEN MIN. R.F.=1)  AT K=   3, I=   2, J=  31

 MAXIMUM STEPSIZE WHICH MEETS STABILITY CRITERION OF THE ADVECTION TERM
 (FOR PURE FINITE-DIFFERENCE OPTION, MIXELM=0) 
 = 0.1250    (WHEN MIN. R.F.=1)  AT K=   3, I=   2, J=  30
>>>>>>> Stashed changes


 TOTAL NUMBER OF POINT SOURCES/SINKS PRESENT IN THE FLOW MODEL =   240

 MAXIMUM STEPSIZE WHICH MEETS STABILITY CRITERION OF THE SINK & SOURCE TERM
 = 0.1000E+31(WHEN MIN. R.F.=1)  AT K=   0, I=   0, J=   0

 MAXIMUM STEPSIZE WHICH MEETS STABILITY CRITERION OF THE DISPERSION TERM
<<<<<<< Updated upstream
 = 0.6201E-02(WHEN MIN. R.F.=1)  AT K=   3, I=   2, J=  31
     1 CALLS TO GCG PACKAGE FOR TRANSPORT TIME STEP   6 IN FLOW TIME STEP  37 STRESS PERIOD   2
    16 TOTAL ITERATIONS
 
 SOLVING FOR HEAD 
 FLOW MODEL IS TRANSIENT
 FLOW MODEL CONTAINS CONSTANT-HEAD CELLS


 MAXIMUM STEPSIZE DURING WHICH ANY PARTICLE CANNOT MOVE MORE THAN ONE CELL
 = 0.1634    (WHEN MIN. R.F.=1)  AT K=   3, I=   2, J=  29

 MAXIMUM STEPSIZE WHICH MEETS STABILITY CRITERION OF THE ADVECTION TERM
 (FOR PURE FINITE-DIFFERENCE OPTION, MIXELM=0) 
 = 0.1133    (WHEN MIN. R.F.=1)  AT K=   3, I=   2, J=  28


 TOTAL NUMBER OF POINT SOURCES/SINKS PRESENT IN THE FLOW MODEL =   240

 MAXIMUM STEPSIZE WHICH MEETS STABILITY CRITERION OF THE SINK & SOURCE TERM
 = 0.1000E+31(WHEN MIN. R.F.=1)  AT K=   0, I=   0, J=   0

 MAXIMUM STEPSIZE WHICH MEETS STABILITY CRITERION OF THE DISPERSION TERM
 = 0.6201E-02(WHEN MIN. R.F.=1)  AT K=   3, I=   2, J=  31
     1 CALLS TO GCG PACKAGE FOR TRANSPORT TIME STEP   7 IN FLOW TIME STEP  37 STRESS PERIOD   2
    16 TOTAL ITERATIONS
=======
 = 0.6707E-02(WHEN MIN. R.F.=1)  AT K=   3, I=   2, J=  30


     1 CALLS TO GCG PACKAGE FOR TRANSPORT TIME STEP   1 IN FLOW TIME STEP  31 STRESS PERIOD   2
    18 TOTAL ITERATIONS

 OUTPUT CONTROL FOR STRESS PERIOD    2   TIME STEP  31
    SAVE HEAD FOR ALL LAYERS
    SAVE BUDGET
0WARNING: NUMERICAL OSCILLATION ENCOUNTERED
 ONE OR MORE CELL CONCENTRATIONS LESS THAN CRHOREF
 SMALLEST DENSITY =  0.100E+04
 AT CELL (I,J,K) = (   3,  60,  27)

>>>>>>> Stashed changes
 
 SOLVING FOR HEAD 
 FLOW MODEL IS TRANSIENT
 FLOW MODEL CONTAINS CONSTANT-HEAD CELLS


 MAXIMUM STEPSIZE DURING WHICH ANY PARTICLE CANNOT MOVE MORE THAN ONE CELL
<<<<<<< Updated upstream
 = 0.1634    (WHEN MIN. R.F.=1)  AT K=   3, I=   2, J=  29

 MAXIMUM STEPSIZE WHICH MEETS STABILITY CRITERION OF THE ADVECTION TERM
 (FOR PURE FINITE-DIFFERENCE OPTION, MIXELM=0) 
 = 0.1133    (WHEN MIN. R.F.=1)  AT K=   3, I=   2, J=  28
=======
 = 0.1871    (WHEN MIN. R.F.=1)  AT K=   3, I=   2, J=  31

 MAXIMUM STEPSIZE WHICH MEETS STABILITY CRITERION OF THE ADVECTION TERM
 (FOR PURE FINITE-DIFFERENCE OPTION, MIXELM=0) 
 = 0.1249    (WHEN MIN. R.F.=1)  AT K=   3, I=   2, J=  30
>>>>>>> Stashed changes


 TOTAL NUMBER OF POINT SOURCES/SINKS PRESENT IN THE FLOW MODEL =   240

 MAXIMUM STEPSIZE WHICH MEETS STABILITY CRITERION OF THE SINK & SOURCE TERM
 = 0.1000E+31(WHEN MIN. R.F.=1)  AT K=   0, I=   0, J=   0

 MAXIMUM STEPSIZE WHICH MEETS STABILITY CRITERION OF THE DISPERSION TERM
<<<<<<< Updated upstream
 = 0.6201E-02(WHEN MIN. R.F.=1)  AT K=   3, I=   2, J=  31
     1 CALLS TO GCG PACKAGE FOR TRANSPORT TIME STEP   8 IN FLOW TIME STEP  37 STRESS PERIOD   2
    16 TOTAL ITERATIONS
=======
 = 0.6707E-02(WHEN MIN. R.F.=1)  AT K=   3, I=   2, J=  30
     1 CALLS TO GCG PACKAGE FOR TRANSPORT TIME STEP   2 IN FLOW TIME STEP  31 STRESS PERIOD   2
    18 TOTAL ITERATIONS
0WARNING: NUMERICAL OSCILLATION ENCOUNTERED
 ONE OR MORE CELL CONCENTRATIONS LESS THAN CRHOREF
 SMALLEST DENSITY =  0.100E+04
 AT CELL (I,J,K) = (   3,  60,  27)

>>>>>>> Stashed changes
 
 SOLVING FOR HEAD 
 FLOW MODEL IS TRANSIENT
 FLOW MODEL CONTAINS CONSTANT-HEAD CELLS


 MAXIMUM STEPSIZE DURING WHICH ANY PARTICLE CANNOT MOVE MORE THAN ONE CELL
<<<<<<< Updated upstream
 = 0.1634    (WHEN MIN. R.F.=1)  AT K=   3, I=   2, J=  29

 MAXIMUM STEPSIZE WHICH MEETS STABILITY CRITERION OF THE ADVECTION TERM
 (FOR PURE FINITE-DIFFERENCE OPTION, MIXELM=0) 
 = 0.1133    (WHEN MIN. R.F.=1)  AT K=   3, I=   2, J=  28
=======
 = 0.1871    (WHEN MIN. R.F.=1)  AT K=   3, I=   2, J=  31

 MAXIMUM STEPSIZE WHICH MEETS STABILITY CRITERION OF THE ADVECTION TERM
 (FOR PURE FINITE-DIFFERENCE OPTION, MIXELM=0) 
 = 0.1249    (WHEN MIN. R.F.=1)  AT K=   3, I=   2, J=  30
>>>>>>> Stashed changes


 TOTAL NUMBER OF POINT SOURCES/SINKS PRESENT IN THE FLOW MODEL =   240

 MAXIMUM STEPSIZE WHICH MEETS STABILITY CRITERION OF THE SINK & SOURCE TERM
 = 0.1000E+31(WHEN MIN. R.F.=1)  AT K=   0, I=   0, J=   0

 MAXIMUM STEPSIZE WHICH MEETS STABILITY CRITERION OF THE DISPERSION TERM
<<<<<<< Updated upstream
 = 0.6201E-02(WHEN MIN. R.F.=1)  AT K=   3, I=   2, J=  31
     1 CALLS TO GCG PACKAGE FOR TRANSPORT TIME STEP   9 IN FLOW TIME STEP  37 STRESS PERIOD   2
     7 TOTAL ITERATIONS
  MAXIMUM CONCENTRATION CHANGES FOR EACH ITERATION:
  MAX. CHANGE LAYER,ROW,COL MAX. CHANGE LAYER,ROW,COL MAX. CHANGE LAYER,ROW,COL MAX. CHANGE LAYER,ROW,COL MAX. CHANGE LAYER,ROW,COL
 ------------------------------------------------------------------------------------------------------------------------------------
   0.2251E-03 ( 13,  3, 53)  0.1718E-04 (  5,  2, 61)  0.3530E-05 (  6,  1, 55)  0.1203E-05 (  3,  3, 31)  0.5201E-06 (  3,  3, 30)
   0.2367E-06 (  3,  3, 31)  0.7332E-07 (  3,  3, 30)


                                          ================================================
                                                         FROM TIME =   38.000     TO    39.000    
=======
 = 0.6707E-02(WHEN MIN. R.F.=1)  AT K=   3, I=   2, J=  30
     1 CALLS TO GCG PACKAGE FOR TRANSPORT TIME STEP   3 IN FLOW TIME STEP  31 STRESS PERIOD   2
    18 TOTAL ITERATIONS
0WARNING: NUMERICAL OSCILLATION ENCOUNTERED
 ONE OR MORE CELL CONCENTRATIONS LESS THAN CRHOREF
 SMALLEST DENSITY =  0.100E+04
 AT CELL (I,J,K) = (   3,  60,  27)
>>>>>>> Stashed changes

 
 SOLVING FOR HEAD 
 FLOW MODEL IS TRANSIENT
 FLOW MODEL CONTAINS CONSTANT-HEAD CELLS


 MAXIMUM STEPSIZE DURING WHICH ANY PARTICLE CANNOT MOVE MORE THAN ONE CELL
<<<<<<< Updated upstream
 = 0.1634    (WHEN MIN. R.F.=1)  AT K=   3, I=   2, J=  29

 MAXIMUM STEPSIZE WHICH MEETS STABILITY CRITERION OF THE ADVECTION TERM
 (FOR PURE FINITE-DIFFERENCE OPTION, MIXELM=0) 
 = 0.1133    (WHEN MIN. R.F.=1)  AT K=   3, I=   2, J=  28
=======
 = 0.1871    (WHEN MIN. R.F.=1)  AT K=   3, I=   2, J=  31

 MAXIMUM STEPSIZE WHICH MEETS STABILITY CRITERION OF THE ADVECTION TERM
 (FOR PURE FINITE-DIFFERENCE OPTION, MIXELM=0) 
 = 0.1249    (WHEN MIN. R.F.=1)  AT K=   3, I=   2, J=  30
>>>>>>> Stashed changes


 TOTAL NUMBER OF POINT SOURCES/SINKS PRESENT IN THE FLOW MODEL =   240

 MAXIMUM STEPSIZE WHICH MEETS STABILITY CRITERION OF THE SINK & SOURCE TERM
 = 0.1000E+31(WHEN MIN. R.F.=1)  AT K=   0, I=   0, J=   0

 MAXIMUM STEPSIZE WHICH MEETS STABILITY CRITERION OF THE DISPERSION TERM
<<<<<<< Updated upstream
 = 0.6201E-02(WHEN MIN. R.F.=1)  AT K=   3, I=   2, J=  31


     1 CALLS TO GCG PACKAGE FOR TRANSPORT TIME STEP   1 IN FLOW TIME STEP  38 STRESS PERIOD   2
    16 TOTAL ITERATIONS

 NO OUTPUT CONTROL FOR STRESS PERIOD    2   TIME STEP  38
=======
 = 0.6707E-02(WHEN MIN. R.F.=1)  AT K=   3, I=   2, J=  30
     1 CALLS TO GCG PACKAGE FOR TRANSPORT TIME STEP   4 IN FLOW TIME STEP  31 STRESS PERIOD   2
    18 TOTAL ITERATIONS
0WARNING: NUMERICAL OSCILLATION ENCOUNTERED
 ONE OR MORE CELL CONCENTRATIONS LESS THAN CRHOREF
 SMALLEST DENSITY =  0.100E+04
 AT CELL (I,J,K) = (   3,  60,  27)

>>>>>>> Stashed changes
 
 SOLVING FOR HEAD 
 FLOW MODEL IS TRANSIENT
 FLOW MODEL CONTAINS CONSTANT-HEAD CELLS


 MAXIMUM STEPSIZE DURING WHICH ANY PARTICLE CANNOT MOVE MORE THAN ONE CELL
<<<<<<< Updated upstream
 = 0.1634    (WHEN MIN. R.F.=1)  AT K=   3, I=   2, J=  29

 MAXIMUM STEPSIZE WHICH MEETS STABILITY CRITERION OF THE ADVECTION TERM
 (FOR PURE FINITE-DIFFERENCE OPTION, MIXELM=0) 
 = 0.1133    (WHEN MIN. R.F.=1)  AT K=   3, I=   2, J=  28
=======
 = 0.1871    (WHEN MIN. R.F.=1)  AT K=   3, I=   2, J=  31

 MAXIMUM STEPSIZE WHICH MEETS STABILITY CRITERION OF THE ADVECTION TERM
 (FOR PURE FINITE-DIFFERENCE OPTION, MIXELM=0) 
 = 0.1249    (WHEN MIN. R.F.=1)  AT K=   3, I=   2, J=  30
>>>>>>> Stashed changes


 TOTAL NUMBER OF POINT SOURCES/SINKS PRESENT IN THE FLOW MODEL =   240

 MAXIMUM STEPSIZE WHICH MEETS STABILITY CRITERION OF THE SINK & SOURCE TERM
 = 0.1000E+31(WHEN MIN. R.F.=1)  AT K=   0, I=   0, J=   0

 MAXIMUM STEPSIZE WHICH MEETS STABILITY CRITERION OF THE DISPERSION TERM
<<<<<<< Updated upstream
 = 0.6201E-02(WHEN MIN. R.F.=1)  AT K=   3, I=   2, J=  31
     1 CALLS TO GCG PACKAGE FOR TRANSPORT TIME STEP   2 IN FLOW TIME STEP  38 STRESS PERIOD   2
    16 TOTAL ITERATIONS
=======
 = 0.6707E-02(WHEN MIN. R.F.=1)  AT K=   3, I=   2, J=  30
     1 CALLS TO GCG PACKAGE FOR TRANSPORT TIME STEP   5 IN FLOW TIME STEP  31 STRESS PERIOD   2
    18 TOTAL ITERATIONS
0WARNING: NUMERICAL OSCILLATION ENCOUNTERED
 ONE OR MORE CELL CONCENTRATIONS LESS THAN CRHOREF
 SMALLEST DENSITY =  0.100E+04
 AT CELL (I,J,K) = (   3,  60,  27)

>>>>>>> Stashed changes
 
 SOLVING FOR HEAD 
 FLOW MODEL IS TRANSIENT
 FLOW MODEL CONTAINS CONSTANT-HEAD CELLS


 MAXIMUM STEPSIZE DURING WHICH ANY PARTICLE CANNOT MOVE MORE THAN ONE CELL
<<<<<<< Updated upstream
 = 0.1634    (WHEN MIN. R.F.=1)  AT K=   3, I=   2, J=  29

 MAXIMUM STEPSIZE WHICH MEETS STABILITY CRITERION OF THE ADVECTION TERM
 (FOR PURE FINITE-DIFFERENCE OPTION, MIXELM=0) 
 = 0.1133    (WHEN MIN. R.F.=1)  AT K=   3, I=   2, J=  28
=======
 = 0.1871    (WHEN MIN. R.F.=1)  AT K=   3, I=   2, J=  31

 MAXIMUM STEPSIZE WHICH MEETS STABILITY CRITERION OF THE ADVECTION TERM
 (FOR PURE FINITE-DIFFERENCE OPTION, MIXELM=0) 
 = 0.1249    (WHEN MIN. R.F.=1)  AT K=   3, I=   2, J=  30
>>>>>>> Stashed changes


 TOTAL NUMBER OF POINT SOURCES/SINKS PRESENT IN THE FLOW MODEL =   240

 MAXIMUM STEPSIZE WHICH MEETS STABILITY CRITERION OF THE SINK & SOURCE TERM
 = 0.1000E+31(WHEN MIN. R.F.=1)  AT K=   0, I=   0, J=   0

 MAXIMUM STEPSIZE WHICH MEETS STABILITY CRITERION OF THE DISPERSION TERM
<<<<<<< Updated upstream
 = 0.6201E-02(WHEN MIN. R.F.=1)  AT K=   3, I=   2, J=  31
     1 CALLS TO GCG PACKAGE FOR TRANSPORT TIME STEP   3 IN FLOW TIME STEP  38 STRESS PERIOD   2
    16 TOTAL ITERATIONS
=======
 = 0.6707E-02(WHEN MIN. R.F.=1)  AT K=   3, I=   2, J=  30
     1 CALLS TO GCG PACKAGE FOR TRANSPORT TIME STEP   6 IN FLOW TIME STEP  31 STRESS PERIOD   2
    18 TOTAL ITERATIONS
0WARNING: NUMERICAL OSCILLATION ENCOUNTERED
 ONE OR MORE CELL CONCENTRATIONS LESS THAN CRHOREF
 SMALLEST DENSITY =  0.100E+04
 AT CELL (I,J,K) = (   3,  60,  27)

>>>>>>> Stashed changes
 
 SOLVING FOR HEAD 
 FLOW MODEL IS TRANSIENT
 FLOW MODEL CONTAINS CONSTANT-HEAD CELLS


 MAXIMUM STEPSIZE DURING WHICH ANY PARTICLE CANNOT MOVE MORE THAN ONE CELL
<<<<<<< Updated upstream
 = 0.1634    (WHEN MIN. R.F.=1)  AT K=   3, I=   2, J=  29

 MAXIMUM STEPSIZE WHICH MEETS STABILITY CRITERION OF THE ADVECTION TERM
 (FOR PURE FINITE-DIFFERENCE OPTION, MIXELM=0) 
 = 0.1133    (WHEN MIN. R.F.=1)  AT K=   3, I=   2, J=  28
=======
 = 0.1871    (WHEN MIN. R.F.=1)  AT K=   3, I=   2, J=  31

 MAXIMUM STEPSIZE WHICH MEETS STABILITY CRITERION OF THE ADVECTION TERM
 (FOR PURE FINITE-DIFFERENCE OPTION, MIXELM=0) 
 = 0.1249    (WHEN MIN. R.F.=1)  AT K=   3, I=   2, J=  30
>>>>>>> Stashed changes


 TOTAL NUMBER OF POINT SOURCES/SINKS PRESENT IN THE FLOW MODEL =   240

 MAXIMUM STEPSIZE WHICH MEETS STABILITY CRITERION OF THE SINK & SOURCE TERM
 = 0.1000E+31(WHEN MIN. R.F.=1)  AT K=   0, I=   0, J=   0

 MAXIMUM STEPSIZE WHICH MEETS STABILITY CRITERION OF THE DISPERSION TERM
<<<<<<< Updated upstream
 = 0.6201E-02(WHEN MIN. R.F.=1)  AT K=   3, I=   2, J=  31
     1 CALLS TO GCG PACKAGE FOR TRANSPORT TIME STEP   4 IN FLOW TIME STEP  38 STRESS PERIOD   2
    16 TOTAL ITERATIONS
=======
 = 0.6706E-02(WHEN MIN. R.F.=1)  AT K=   3, I=   2, J=  30
     1 CALLS TO GCG PACKAGE FOR TRANSPORT TIME STEP   7 IN FLOW TIME STEP  31 STRESS PERIOD   2
    18 TOTAL ITERATIONS
0WARNING: NUMERICAL OSCILLATION ENCOUNTERED
 ONE OR MORE CELL CONCENTRATIONS LESS THAN CRHOREF
 SMALLEST DENSITY =  0.100E+04
 AT CELL (I,J,K) = (   3,  60,  27)

>>>>>>> Stashed changes
 
 SOLVING FOR HEAD 
 FLOW MODEL IS TRANSIENT
 FLOW MODEL CONTAINS CONSTANT-HEAD CELLS


 MAXIMUM STEPSIZE DURING WHICH ANY PARTICLE CANNOT MOVE MORE THAN ONE CELL
<<<<<<< Updated upstream
 = 0.1634    (WHEN MIN. R.F.=1)  AT K=   3, I=   2, J=  29

 MAXIMUM STEPSIZE WHICH MEETS STABILITY CRITERION OF THE ADVECTION TERM
 (FOR PURE FINITE-DIFFERENCE OPTION, MIXELM=0) 
 = 0.1133    (WHEN MIN. R.F.=1)  AT K=   3, I=   2, J=  28
=======
 = 0.1871    (WHEN MIN. R.F.=1)  AT K=   3, I=   2, J=  31

 MAXIMUM STEPSIZE WHICH MEETS STABILITY CRITERION OF THE ADVECTION TERM
 (FOR PURE FINITE-DIFFERENCE OPTION, MIXELM=0) 
 = 0.1249    (WHEN MIN. R.F.=1)  AT K=   3, I=   2, J=  30
>>>>>>> Stashed changes


 TOTAL NUMBER OF POINT SOURCES/SINKS PRESENT IN THE FLOW MODEL =   240

 MAXIMUM STEPSIZE WHICH MEETS STABILITY CRITERION OF THE SINK & SOURCE TERM
 = 0.1000E+31(WHEN MIN. R.F.=1)  AT K=   0, I=   0, J=   0

 MAXIMUM STEPSIZE WHICH MEETS STABILITY CRITERION OF THE DISPERSION TERM
<<<<<<< Updated upstream
 = 0.6201E-02(WHEN MIN. R.F.=1)  AT K=   3, I=   2, J=  31
     1 CALLS TO GCG PACKAGE FOR TRANSPORT TIME STEP   5 IN FLOW TIME STEP  38 STRESS PERIOD   2
    16 TOTAL ITERATIONS
 
 SOLVING FOR HEAD 
 FLOW MODEL IS TRANSIENT
 FLOW MODEL CONTAINS CONSTANT-HEAD CELLS


 MAXIMUM STEPSIZE DURING WHICH ANY PARTICLE CANNOT MOVE MORE THAN ONE CELL
 = 0.1634    (WHEN MIN. R.F.=1)  AT K=   3, I=   2, J=  29

 MAXIMUM STEPSIZE WHICH MEETS STABILITY CRITERION OF THE ADVECTION TERM
 (FOR PURE FINITE-DIFFERENCE OPTION, MIXELM=0) 
 = 0.1133    (WHEN MIN. R.F.=1)  AT K=   3, I=   2, J=  28


 TOTAL NUMBER OF POINT SOURCES/SINKS PRESENT IN THE FLOW MODEL =   240

 MAXIMUM STEPSIZE WHICH MEETS STABILITY CRITERION OF THE SINK & SOURCE TERM
 = 0.1000E+31(WHEN MIN. R.F.=1)  AT K=   0, I=   0, J=   0

 MAXIMUM STEPSIZE WHICH MEETS STABILITY CRITERION OF THE DISPERSION TERM
 = 0.6201E-02(WHEN MIN. R.F.=1)  AT K=   3, I=   2, J=  31
     1 CALLS TO GCG PACKAGE FOR TRANSPORT TIME STEP   6 IN FLOW TIME STEP  38 STRESS PERIOD   2
    16 TOTAL ITERATIONS
=======
 = 0.6706E-02(WHEN MIN. R.F.=1)  AT K=   3, I=   2, J=  30
     1 CALLS TO GCG PACKAGE FOR TRANSPORT TIME STEP   8 IN FLOW TIME STEP  31 STRESS PERIOD   2
     7 TOTAL ITERATIONS
  MAXIMUM CONCENTRATION CHANGES FOR EACH ITERATION:
  MAX. CHANGE LAYER,ROW,COL MAX. CHANGE LAYER,ROW,COL MAX. CHANGE LAYER,ROW,COL MAX. CHANGE LAYER,ROW,COL MAX. CHANGE LAYER,ROW,COL
 ------------------------------------------------------------------------------------------------------------------------------------
   0.2451E-03 ( 13,  2, 54)  0.1586E-04 (  6,  1, 52)  0.3856E-05 (  4,  2, 44)  0.1409E-05 (  3,  2, 37)  0.3560E-06 (  4,  1, 31)
   0.1353E-06 (  3,  1, 31)  0.3397E-07 (  4,  3, 27)
 UBDSV1 SAVING "         STORAGE" ON UNIT  53 AT TIME STEP 31, STRESS PERIOD   2
 UBDSV2 SAVING "   CONSTANT HEAD" ON UNIT  53 AT TIME STEP 31, STRESS PERIOD   2
 UBDSV1 SAVING "FLOW RIGHT FACE " ON UNIT  53 AT TIME STEP 31, STRESS PERIOD   2
 UBDSV1 SAVING "FLOW FRONT FACE " ON UNIT  53 AT TIME STEP 31, STRESS PERIOD   2
 UBDSV1 SAVING "FLOW LOWER FACE " ON UNIT  53 AT TIME STEP 31, STRESS PERIOD   2
 UBDSV1 SAVING "            DCDT" ON UNIT  53 AT TIME STEP 31, STRESS PERIOD   2
0WARNING: NUMERICAL OSCILLATION ENCOUNTERED
 ONE OR MORE CELL CONCENTRATIONS LESS THAN CRHOREF
 SMALLEST DENSITY =  0.100E+04
 AT CELL (I,J,K) = (   3,  60,  27)


 HEAD WILL BE SAVED ON UNIT   51 AT END OF TIME STEP  31, STRESS PERIOD    2


                                          ================================================
                                                         FROM TIME =   32.000     TO    33.000    

>>>>>>> Stashed changes
 
 SOLVING FOR HEAD 
 FLOW MODEL IS TRANSIENT
 FLOW MODEL CONTAINS CONSTANT-HEAD CELLS


 MAXIMUM STEPSIZE DURING WHICH ANY PARTICLE CANNOT MOVE MORE THAN ONE CELL
<<<<<<< Updated upstream
 = 0.1634    (WHEN MIN. R.F.=1)  AT K=   3, I=   2, J=  29

 MAXIMUM STEPSIZE WHICH MEETS STABILITY CRITERION OF THE ADVECTION TERM
 (FOR PURE FINITE-DIFFERENCE OPTION, MIXELM=0) 
 = 0.1133    (WHEN MIN. R.F.=1)  AT K=   3, I=   2, J=  28
=======
 = 0.1871    (WHEN MIN. R.F.=1)  AT K=   3, I=   2, J=  31

 MAXIMUM STEPSIZE WHICH MEETS STABILITY CRITERION OF THE ADVECTION TERM
 (FOR PURE FINITE-DIFFERENCE OPTION, MIXELM=0) 
 = 0.1249    (WHEN MIN. R.F.=1)  AT K=   3, I=   2, J=  30
>>>>>>> Stashed changes


 TOTAL NUMBER OF POINT SOURCES/SINKS PRESENT IN THE FLOW MODEL =   240

 MAXIMUM STEPSIZE WHICH MEETS STABILITY CRITERION OF THE SINK & SOURCE TERM
 = 0.1000E+31(WHEN MIN. R.F.=1)  AT K=   0, I=   0, J=   0

 MAXIMUM STEPSIZE WHICH MEETS STABILITY CRITERION OF THE DISPERSION TERM
<<<<<<< Updated upstream
 = 0.6201E-02(WHEN MIN. R.F.=1)  AT K=   3, I=   2, J=  31
     1 CALLS TO GCG PACKAGE FOR TRANSPORT TIME STEP   7 IN FLOW TIME STEP  38 STRESS PERIOD   2
    16 TOTAL ITERATIONS
=======
 = 0.6706E-02(WHEN MIN. R.F.=1)  AT K=   3, I=   2, J=  30


     1 CALLS TO GCG PACKAGE FOR TRANSPORT TIME STEP   1 IN FLOW TIME STEP  32 STRESS PERIOD   2
    18 TOTAL ITERATIONS

 OUTPUT CONTROL FOR STRESS PERIOD    2   TIME STEP  32
    SAVE HEAD FOR ALL LAYERS
    SAVE BUDGET
0WARNING: NUMERICAL OSCILLATION ENCOUNTERED
 ONE OR MORE CELL CONCENTRATIONS LESS THAN CRHOREF
 SMALLEST DENSITY =  0.100E+04
 AT CELL (I,J,K) = (   3,  60,  27)

>>>>>>> Stashed changes
 
 SOLVING FOR HEAD 
 FLOW MODEL IS TRANSIENT
 FLOW MODEL CONTAINS CONSTANT-HEAD CELLS


 MAXIMUM STEPSIZE DURING WHICH ANY PARTICLE CANNOT MOVE MORE THAN ONE CELL
<<<<<<< Updated upstream
 = 0.1634    (WHEN MIN. R.F.=1)  AT K=   3, I=   2, J=  29

 MAXIMUM STEPSIZE WHICH MEETS STABILITY CRITERION OF THE ADVECTION TERM
 (FOR PURE FINITE-DIFFERENCE OPTION, MIXELM=0) 
 = 0.1133    (WHEN MIN. R.F.=1)  AT K=   3, I=   2, J=  28
=======
 = 0.1871    (WHEN MIN. R.F.=1)  AT K=   3, I=   2, J=  31

 MAXIMUM STEPSIZE WHICH MEETS STABILITY CRITERION OF THE ADVECTION TERM
 (FOR PURE FINITE-DIFFERENCE OPTION, MIXELM=0) 
 = 0.1249    (WHEN MIN. R.F.=1)  AT K=   3, I=   2, J=  30
>>>>>>> Stashed changes


 TOTAL NUMBER OF POINT SOURCES/SINKS PRESENT IN THE FLOW MODEL =   240

 MAXIMUM STEPSIZE WHICH MEETS STABILITY CRITERION OF THE SINK & SOURCE TERM
 = 0.1000E+31(WHEN MIN. R.F.=1)  AT K=   0, I=   0, J=   0

 MAXIMUM STEPSIZE WHICH MEETS STABILITY CRITERION OF THE DISPERSION TERM
<<<<<<< Updated upstream
 = 0.6201E-02(WHEN MIN. R.F.=1)  AT K=   3, I=   2, J=  31
     1 CALLS TO GCG PACKAGE FOR TRANSPORT TIME STEP   8 IN FLOW TIME STEP  38 STRESS PERIOD   2
    16 TOTAL ITERATIONS
=======
 = 0.6706E-02(WHEN MIN. R.F.=1)  AT K=   3, I=   2, J=  30
     1 CALLS TO GCG PACKAGE FOR TRANSPORT TIME STEP   2 IN FLOW TIME STEP  32 STRESS PERIOD   2
    18 TOTAL ITERATIONS
0WARNING: NUMERICAL OSCILLATION ENCOUNTERED
 ONE OR MORE CELL CONCENTRATIONS LESS THAN CRHOREF
 SMALLEST DENSITY =  0.100E+04
 AT CELL (I,J,K) = (   3,  60,  27)

>>>>>>> Stashed changes
 
 SOLVING FOR HEAD 
 FLOW MODEL IS TRANSIENT
 FLOW MODEL CONTAINS CONSTANT-HEAD CELLS


 MAXIMUM STEPSIZE DURING WHICH ANY PARTICLE CANNOT MOVE MORE THAN ONE CELL
<<<<<<< Updated upstream
 = 0.1634    (WHEN MIN. R.F.=1)  AT K=   3, I=   2, J=  29

 MAXIMUM STEPSIZE WHICH MEETS STABILITY CRITERION OF THE ADVECTION TERM
 (FOR PURE FINITE-DIFFERENCE OPTION, MIXELM=0) 
 = 0.1133    (WHEN MIN. R.F.=1)  AT K=   3, I=   2, J=  28
=======
 = 0.1871    (WHEN MIN. R.F.=1)  AT K=   3, I=   2, J=  31

 MAXIMUM STEPSIZE WHICH MEETS STABILITY CRITERION OF THE ADVECTION TERM
 (FOR PURE FINITE-DIFFERENCE OPTION, MIXELM=0) 
 = 0.1249    (WHEN MIN. R.F.=1)  AT K=   3, I=   2, J=  30
>>>>>>> Stashed changes


 TOTAL NUMBER OF POINT SOURCES/SINKS PRESENT IN THE FLOW MODEL =   240

 MAXIMUM STEPSIZE WHICH MEETS STABILITY CRITERION OF THE SINK & SOURCE TERM
 = 0.1000E+31(WHEN MIN. R.F.=1)  AT K=   0, I=   0, J=   0

 MAXIMUM STEPSIZE WHICH MEETS STABILITY CRITERION OF THE DISPERSION TERM
<<<<<<< Updated upstream
 = 0.6201E-02(WHEN MIN. R.F.=1)  AT K=   3, I=   2, J=  31
     1 CALLS TO GCG PACKAGE FOR TRANSPORT TIME STEP   9 IN FLOW TIME STEP  38 STRESS PERIOD   2
     7 TOTAL ITERATIONS
  MAXIMUM CONCENTRATION CHANGES FOR EACH ITERATION:
  MAX. CHANGE LAYER,ROW,COL MAX. CHANGE LAYER,ROW,COL MAX. CHANGE LAYER,ROW,COL MAX. CHANGE LAYER,ROW,COL MAX. CHANGE LAYER,ROW,COL
 ------------------------------------------------------------------------------------------------------------------------------------
   0.2222E-03 ( 13,  3, 53)  0.1646E-04 (  5,  2, 61)  0.3392E-05 (  6,  1, 55)  0.1144E-05 (  3,  3, 31)  0.4965E-06 (  3,  3, 30)
   0.2255E-06 (  3,  3, 31)  0.7025E-07 (  3,  3, 30)


                                          ================================================
                                                         FROM TIME =   39.000     TO    40.000    
=======
 = 0.6706E-02(WHEN MIN. R.F.=1)  AT K=   3, I=   2, J=  30
     1 CALLS TO GCG PACKAGE FOR TRANSPORT TIME STEP   3 IN FLOW TIME STEP  32 STRESS PERIOD   2
    18 TOTAL ITERATIONS
0WARNING: NUMERICAL OSCILLATION ENCOUNTERED
 ONE OR MORE CELL CONCENTRATIONS LESS THAN CRHOREF
 SMALLEST DENSITY =  0.100E+04
 AT CELL (I,J,K) = (   3,  60,  27)
>>>>>>> Stashed changes

 
 SOLVING FOR HEAD 
 FLOW MODEL IS TRANSIENT
 FLOW MODEL CONTAINS CONSTANT-HEAD CELLS


 MAXIMUM STEPSIZE DURING WHICH ANY PARTICLE CANNOT MOVE MORE THAN ONE CELL
<<<<<<< Updated upstream
 = 0.1634    (WHEN MIN. R.F.=1)  AT K=   3, I=   2, J=  29

 MAXIMUM STEPSIZE WHICH MEETS STABILITY CRITERION OF THE ADVECTION TERM
 (FOR PURE FINITE-DIFFERENCE OPTION, MIXELM=0) 
 = 0.1133    (WHEN MIN. R.F.=1)  AT K=   3, I=   2, J=  28
=======
 = 0.1871    (WHEN MIN. R.F.=1)  AT K=   3, I=   2, J=  31

 MAXIMUM STEPSIZE WHICH MEETS STABILITY CRITERION OF THE ADVECTION TERM
 (FOR PURE FINITE-DIFFERENCE OPTION, MIXELM=0) 
 = 0.1249    (WHEN MIN. R.F.=1)  AT K=   3, I=   2, J=  30
>>>>>>> Stashed changes


 TOTAL NUMBER OF POINT SOURCES/SINKS PRESENT IN THE FLOW MODEL =   240

 MAXIMUM STEPSIZE WHICH MEETS STABILITY CRITERION OF THE SINK & SOURCE TERM
 = 0.1000E+31(WHEN MIN. R.F.=1)  AT K=   0, I=   0, J=   0

 MAXIMUM STEPSIZE WHICH MEETS STABILITY CRITERION OF THE DISPERSION TERM
<<<<<<< Updated upstream
 = 0.6201E-02(WHEN MIN. R.F.=1)  AT K=   3, I=   2, J=  31


     1 CALLS TO GCG PACKAGE FOR TRANSPORT TIME STEP   1 IN FLOW TIME STEP  39 STRESS PERIOD   2
    16 TOTAL ITERATIONS

 NO OUTPUT CONTROL FOR STRESS PERIOD    2   TIME STEP  39
=======
 = 0.6706E-02(WHEN MIN. R.F.=1)  AT K=   3, I=   2, J=  30
     1 CALLS TO GCG PACKAGE FOR TRANSPORT TIME STEP   4 IN FLOW TIME STEP  32 STRESS PERIOD   2
    17 TOTAL ITERATIONS
0WARNING: NUMERICAL OSCILLATION ENCOUNTERED
 ONE OR MORE CELL CONCENTRATIONS LESS THAN CRHOREF
 SMALLEST DENSITY =  0.100E+04
 AT CELL (I,J,K) = (   3,  60,  27)

>>>>>>> Stashed changes
 
 SOLVING FOR HEAD 
 FLOW MODEL IS TRANSIENT
 FLOW MODEL CONTAINS CONSTANT-HEAD CELLS


 MAXIMUM STEPSIZE DURING WHICH ANY PARTICLE CANNOT MOVE MORE THAN ONE CELL
<<<<<<< Updated upstream
 = 0.1634    (WHEN MIN. R.F.=1)  AT K=   3, I=   2, J=  29

 MAXIMUM STEPSIZE WHICH MEETS STABILITY CRITERION OF THE ADVECTION TERM
 (FOR PURE FINITE-DIFFERENCE OPTION, MIXELM=0) 
 = 0.1133    (WHEN MIN. R.F.=1)  AT K=   3, I=   2, J=  28
=======
 = 0.1871    (WHEN MIN. R.F.=1)  AT K=   3, I=   2, J=  31

 MAXIMUM STEPSIZE WHICH MEETS STABILITY CRITERION OF THE ADVECTION TERM
 (FOR PURE FINITE-DIFFERENCE OPTION, MIXELM=0) 
 = 0.1249    (WHEN MIN. R.F.=1)  AT K=   3, I=   2, J=  30
>>>>>>> Stashed changes


 TOTAL NUMBER OF POINT SOURCES/SINKS PRESENT IN THE FLOW MODEL =   240

 MAXIMUM STEPSIZE WHICH MEETS STABILITY CRITERION OF THE SINK & SOURCE TERM
 = 0.1000E+31(WHEN MIN. R.F.=1)  AT K=   0, I=   0, J=   0

 MAXIMUM STEPSIZE WHICH MEETS STABILITY CRITERION OF THE DISPERSION TERM
<<<<<<< Updated upstream
 = 0.6201E-02(WHEN MIN. R.F.=1)  AT K=   3, I=   2, J=  31
     1 CALLS TO GCG PACKAGE FOR TRANSPORT TIME STEP   2 IN FLOW TIME STEP  39 STRESS PERIOD   2
    16 TOTAL ITERATIONS
=======
 = 0.6706E-02(WHEN MIN. R.F.=1)  AT K=   3, I=   2, J=  30
     1 CALLS TO GCG PACKAGE FOR TRANSPORT TIME STEP   5 IN FLOW TIME STEP  32 STRESS PERIOD   2
    18 TOTAL ITERATIONS
0WARNING: NUMERICAL OSCILLATION ENCOUNTERED
 ONE OR MORE CELL CONCENTRATIONS LESS THAN CRHOREF
 SMALLEST DENSITY =  0.100E+04
 AT CELL (I,J,K) = (   3,  60,  27)

>>>>>>> Stashed changes
 
 SOLVING FOR HEAD 
 FLOW MODEL IS TRANSIENT
 FLOW MODEL CONTAINS CONSTANT-HEAD CELLS


 MAXIMUM STEPSIZE DURING WHICH ANY PARTICLE CANNOT MOVE MORE THAN ONE CELL
<<<<<<< Updated upstream
 = 0.1634    (WHEN MIN. R.F.=1)  AT K=   3, I=   2, J=  29

 MAXIMUM STEPSIZE WHICH MEETS STABILITY CRITERION OF THE ADVECTION TERM
 (FOR PURE FINITE-DIFFERENCE OPTION, MIXELM=0) 
 = 0.1133    (WHEN MIN. R.F.=1)  AT K=   3, I=   2, J=  28
=======
 = 0.1871    (WHEN MIN. R.F.=1)  AT K=   3, I=   2, J=  31

 MAXIMUM STEPSIZE WHICH MEETS STABILITY CRITERION OF THE ADVECTION TERM
 (FOR PURE FINITE-DIFFERENCE OPTION, MIXELM=0) 
 = 0.1249    (WHEN MIN. R.F.=1)  AT K=   3, I=   2, J=  30
>>>>>>> Stashed changes


 TOTAL NUMBER OF POINT SOURCES/SINKS PRESENT IN THE FLOW MODEL =   240

 MAXIMUM STEPSIZE WHICH MEETS STABILITY CRITERION OF THE SINK & SOURCE TERM
 = 0.1000E+31(WHEN MIN. R.F.=1)  AT K=   0, I=   0, J=   0

 MAXIMUM STEPSIZE WHICH MEETS STABILITY CRITERION OF THE DISPERSION TERM
<<<<<<< Updated upstream
 = 0.6201E-02(WHEN MIN. R.F.=1)  AT K=   3, I=   2, J=  31
     1 CALLS TO GCG PACKAGE FOR TRANSPORT TIME STEP   3 IN FLOW TIME STEP  39 STRESS PERIOD   2
    16 TOTAL ITERATIONS
=======
 = 0.6706E-02(WHEN MIN. R.F.=1)  AT K=   3, I=   2, J=  30
     1 CALLS TO GCG PACKAGE FOR TRANSPORT TIME STEP   6 IN FLOW TIME STEP  32 STRESS PERIOD   2
    17 TOTAL ITERATIONS
0WARNING: NUMERICAL OSCILLATION ENCOUNTERED
 ONE OR MORE CELL CONCENTRATIONS LESS THAN CRHOREF
 SMALLEST DENSITY =  0.100E+04
 AT CELL (I,J,K) = (   3,  60,  27)

>>>>>>> Stashed changes
 
 SOLVING FOR HEAD 
 FLOW MODEL IS TRANSIENT
 FLOW MODEL CONTAINS CONSTANT-HEAD CELLS


 MAXIMUM STEPSIZE DURING WHICH ANY PARTICLE CANNOT MOVE MORE THAN ONE CELL
<<<<<<< Updated upstream
 = 0.1634    (WHEN MIN. R.F.=1)  AT K=   3, I=   2, J=  29

 MAXIMUM STEPSIZE WHICH MEETS STABILITY CRITERION OF THE ADVECTION TERM
 (FOR PURE FINITE-DIFFERENCE OPTION, MIXELM=0) 
 = 0.1133    (WHEN MIN. R.F.=1)  AT K=   3, I=   2, J=  28
=======
 = 0.1871    (WHEN MIN. R.F.=1)  AT K=   3, I=   2, J=  31

 MAXIMUM STEPSIZE WHICH MEETS STABILITY CRITERION OF THE ADVECTION TERM
 (FOR PURE FINITE-DIFFERENCE OPTION, MIXELM=0) 
 = 0.1249    (WHEN MIN. R.F.=1)  AT K=   3, I=   2, J=  30
>>>>>>> Stashed changes


 TOTAL NUMBER OF POINT SOURCES/SINKS PRESENT IN THE FLOW MODEL =   240

 MAXIMUM STEPSIZE WHICH MEETS STABILITY CRITERION OF THE SINK & SOURCE TERM
 = 0.1000E+31(WHEN MIN. R.F.=1)  AT K=   0, I=   0, J=   0

 MAXIMUM STEPSIZE WHICH MEETS STABILITY CRITERION OF THE DISPERSION TERM
<<<<<<< Updated upstream
 = 0.6201E-02(WHEN MIN. R.F.=1)  AT K=   3, I=   2, J=  31
     1 CALLS TO GCG PACKAGE FOR TRANSPORT TIME STEP   4 IN FLOW TIME STEP  39 STRESS PERIOD   2
    16 TOTAL ITERATIONS
=======
 = 0.6706E-02(WHEN MIN. R.F.=1)  AT K=   3, I=   2, J=  30
     1 CALLS TO GCG PACKAGE FOR TRANSPORT TIME STEP   7 IN FLOW TIME STEP  32 STRESS PERIOD   2
    17 TOTAL ITERATIONS
0WARNING: NUMERICAL OSCILLATION ENCOUNTERED
 ONE OR MORE CELL CONCENTRATIONS LESS THAN CRHOREF
 SMALLEST DENSITY =  0.100E+04
 AT CELL (I,J,K) = (   3,  60,  27)

>>>>>>> Stashed changes
 
 SOLVING FOR HEAD 
 FLOW MODEL IS TRANSIENT
 FLOW MODEL CONTAINS CONSTANT-HEAD CELLS


 MAXIMUM STEPSIZE DURING WHICH ANY PARTICLE CANNOT MOVE MORE THAN ONE CELL
<<<<<<< Updated upstream
 = 0.1634    (WHEN MIN. R.F.=1)  AT K=   3, I=   2, J=  29

 MAXIMUM STEPSIZE WHICH MEETS STABILITY CRITERION OF THE ADVECTION TERM
 (FOR PURE FINITE-DIFFERENCE OPTION, MIXELM=0) 
 = 0.1133    (WHEN MIN. R.F.=1)  AT K=   3, I=   2, J=  28
=======
 = 0.1871    (WHEN MIN. R.F.=1)  AT K=   3, I=   2, J=  31

 MAXIMUM STEPSIZE WHICH MEETS STABILITY CRITERION OF THE ADVECTION TERM
 (FOR PURE FINITE-DIFFERENCE OPTION, MIXELM=0) 
 = 0.1249    (WHEN MIN. R.F.=1)  AT K=   3, I=   2, J=  30
>>>>>>> Stashed changes


 TOTAL NUMBER OF POINT SOURCES/SINKS PRESENT IN THE FLOW MODEL =   240

 MAXIMUM STEPSIZE WHICH MEETS STABILITY CRITERION OF THE SINK & SOURCE TERM
 = 0.1000E+31(WHEN MIN. R.F.=1)  AT K=   0, I=   0, J=   0

 MAXIMUM STEPSIZE WHICH MEETS STABILITY CRITERION OF THE DISPERSION TERM
<<<<<<< Updated upstream
 = 0.6201E-02(WHEN MIN. R.F.=1)  AT K=   3, I=   2, J=  31
     1 CALLS TO GCG PACKAGE FOR TRANSPORT TIME STEP   5 IN FLOW TIME STEP  39 STRESS PERIOD   2
    16 TOTAL ITERATIONS
 
 SOLVING FOR HEAD 
 FLOW MODEL IS TRANSIENT
 FLOW MODEL CONTAINS CONSTANT-HEAD CELLS


 MAXIMUM STEPSIZE DURING WHICH ANY PARTICLE CANNOT MOVE MORE THAN ONE CELL
 = 0.1634    (WHEN MIN. R.F.=1)  AT K=   3, I=   2, J=  29

 MAXIMUM STEPSIZE WHICH MEETS STABILITY CRITERION OF THE ADVECTION TERM
 (FOR PURE FINITE-DIFFERENCE OPTION, MIXELM=0) 
 = 0.1133    (WHEN MIN. R.F.=1)  AT K=   3, I=   2, J=  28


 TOTAL NUMBER OF POINT SOURCES/SINKS PRESENT IN THE FLOW MODEL =   240

 MAXIMUM STEPSIZE WHICH MEETS STABILITY CRITERION OF THE SINK & SOURCE TERM
 = 0.1000E+31(WHEN MIN. R.F.=1)  AT K=   0, I=   0, J=   0

 MAXIMUM STEPSIZE WHICH MEETS STABILITY CRITERION OF THE DISPERSION TERM
 = 0.6201E-02(WHEN MIN. R.F.=1)  AT K=   3, I=   2, J=  31
     1 CALLS TO GCG PACKAGE FOR TRANSPORT TIME STEP   6 IN FLOW TIME STEP  39 STRESS PERIOD   2
    16 TOTAL ITERATIONS
=======
 = 0.6706E-02(WHEN MIN. R.F.=1)  AT K=   3, I=   2, J=  30
     1 CALLS TO GCG PACKAGE FOR TRANSPORT TIME STEP   8 IN FLOW TIME STEP  32 STRESS PERIOD   2
     7 TOTAL ITERATIONS
  MAXIMUM CONCENTRATION CHANGES FOR EACH ITERATION:
  MAX. CHANGE LAYER,ROW,COL MAX. CHANGE LAYER,ROW,COL MAX. CHANGE LAYER,ROW,COL MAX. CHANGE LAYER,ROW,COL MAX. CHANGE LAYER,ROW,COL
 ------------------------------------------------------------------------------------------------------------------------------------
   0.2368E-03 ( 13,  2, 54)  0.1498E-04 (  6,  1, 52)  0.3626E-05 (  4,  2, 44)  0.1322E-05 (  3,  2, 37)  0.3279E-06 (  4,  2, 37)
   0.1154E-06 (  3,  1, 31)  0.3527E-07 (  4,  3, 27)
 UBDSV1 SAVING "         STORAGE" ON UNIT  53 AT TIME STEP 32, STRESS PERIOD   2
 UBDSV2 SAVING "   CONSTANT HEAD" ON UNIT  53 AT TIME STEP 32, STRESS PERIOD   2
 UBDSV1 SAVING "FLOW RIGHT FACE " ON UNIT  53 AT TIME STEP 32, STRESS PERIOD   2
 UBDSV1 SAVING "FLOW FRONT FACE " ON UNIT  53 AT TIME STEP 32, STRESS PERIOD   2
 UBDSV1 SAVING "FLOW LOWER FACE " ON UNIT  53 AT TIME STEP 32, STRESS PERIOD   2
 UBDSV1 SAVING "            DCDT" ON UNIT  53 AT TIME STEP 32, STRESS PERIOD   2
0WARNING: NUMERICAL OSCILLATION ENCOUNTERED
 ONE OR MORE CELL CONCENTRATIONS LESS THAN CRHOREF
 SMALLEST DENSITY =  0.100E+04
 AT CELL (I,J,K) = (   3,  60,  27)


 HEAD WILL BE SAVED ON UNIT   51 AT END OF TIME STEP  32, STRESS PERIOD    2


                                          ================================================
                                                         FROM TIME =   33.000     TO    34.000    

>>>>>>> Stashed changes
 
 SOLVING FOR HEAD 
 FLOW MODEL IS TRANSIENT
 FLOW MODEL CONTAINS CONSTANT-HEAD CELLS


 MAXIMUM STEPSIZE DURING WHICH ANY PARTICLE CANNOT MOVE MORE THAN ONE CELL
<<<<<<< Updated upstream
 = 0.1634    (WHEN MIN. R.F.=1)  AT K=   3, I=   2, J=  29

 MAXIMUM STEPSIZE WHICH MEETS STABILITY CRITERION OF THE ADVECTION TERM
 (FOR PURE FINITE-DIFFERENCE OPTION, MIXELM=0) 
 = 0.1133    (WHEN MIN. R.F.=1)  AT K=   3, I=   2, J=  28
=======
 = 0.1871    (WHEN MIN. R.F.=1)  AT K=   3, I=   2, J=  31

 MAXIMUM STEPSIZE WHICH MEETS STABILITY CRITERION OF THE ADVECTION TERM
 (FOR PURE FINITE-DIFFERENCE OPTION, MIXELM=0) 
 = 0.1249    (WHEN MIN. R.F.=1)  AT K=   3, I=   2, J=  30
>>>>>>> Stashed changes


 TOTAL NUMBER OF POINT SOURCES/SINKS PRESENT IN THE FLOW MODEL =   240

 MAXIMUM STEPSIZE WHICH MEETS STABILITY CRITERION OF THE SINK & SOURCE TERM
 = 0.1000E+31(WHEN MIN. R.F.=1)  AT K=   0, I=   0, J=   0

 MAXIMUM STEPSIZE WHICH MEETS STABILITY CRITERION OF THE DISPERSION TERM
<<<<<<< Updated upstream
 = 0.6201E-02(WHEN MIN. R.F.=1)  AT K=   3, I=   2, J=  31
     1 CALLS TO GCG PACKAGE FOR TRANSPORT TIME STEP   7 IN FLOW TIME STEP  39 STRESS PERIOD   2
    16 TOTAL ITERATIONS
=======
 = 0.6706E-02(WHEN MIN. R.F.=1)  AT K=   3, I=   2, J=  30


     1 CALLS TO GCG PACKAGE FOR TRANSPORT TIME STEP   1 IN FLOW TIME STEP  33 STRESS PERIOD   2
    17 TOTAL ITERATIONS

 OUTPUT CONTROL FOR STRESS PERIOD    2   TIME STEP  33
    SAVE HEAD FOR ALL LAYERS
    SAVE BUDGET
0WARNING: NUMERICAL OSCILLATION ENCOUNTERED
 ONE OR MORE CELL CONCENTRATIONS LESS THAN CRHOREF
 SMALLEST DENSITY =  0.100E+04
 AT CELL (I,J,K) = (   3,  60,  27)

>>>>>>> Stashed changes
 
 SOLVING FOR HEAD 
 FLOW MODEL IS TRANSIENT
 FLOW MODEL CONTAINS CONSTANT-HEAD CELLS


 MAXIMUM STEPSIZE DURING WHICH ANY PARTICLE CANNOT MOVE MORE THAN ONE CELL
<<<<<<< Updated upstream
 = 0.1634    (WHEN MIN. R.F.=1)  AT K=   3, I=   2, J=  29

 MAXIMUM STEPSIZE WHICH MEETS STABILITY CRITERION OF THE ADVECTION TERM
 (FOR PURE FINITE-DIFFERENCE OPTION, MIXELM=0) 
 = 0.1133    (WHEN MIN. R.F.=1)  AT K=   3, I=   2, J=  28
=======
 = 0.1871    (WHEN MIN. R.F.=1)  AT K=   3, I=   2, J=  31

 MAXIMUM STEPSIZE WHICH MEETS STABILITY CRITERION OF THE ADVECTION TERM
 (FOR PURE FINITE-DIFFERENCE OPTION, MIXELM=0) 
 = 0.1249    (WHEN MIN. R.F.=1)  AT K=   3, I=   2, J=  30
>>>>>>> Stashed changes


 TOTAL NUMBER OF POINT SOURCES/SINKS PRESENT IN THE FLOW MODEL =   240

 MAXIMUM STEPSIZE WHICH MEETS STABILITY CRITERION OF THE SINK & SOURCE TERM
 = 0.1000E+31(WHEN MIN. R.F.=1)  AT K=   0, I=   0, J=   0

 MAXIMUM STEPSIZE WHICH MEETS STABILITY CRITERION OF THE DISPERSION TERM
<<<<<<< Updated upstream
 = 0.6201E-02(WHEN MIN. R.F.=1)  AT K=   3, I=   2, J=  31
     1 CALLS TO GCG PACKAGE FOR TRANSPORT TIME STEP   8 IN FLOW TIME STEP  39 STRESS PERIOD   2
    16 TOTAL ITERATIONS
=======
 = 0.6706E-02(WHEN MIN. R.F.=1)  AT K=   3, I=   2, J=  30
     1 CALLS TO GCG PACKAGE FOR TRANSPORT TIME STEP   2 IN FLOW TIME STEP  33 STRESS PERIOD   2
    17 TOTAL ITERATIONS
0WARNING: NUMERICAL OSCILLATION ENCOUNTERED
 ONE OR MORE CELL CONCENTRATIONS LESS THAN CRHOREF
 SMALLEST DENSITY =  0.100E+04
 AT CELL (I,J,K) = (   3,  60,  27)

>>>>>>> Stashed changes
 
 SOLVING FOR HEAD 
 FLOW MODEL IS TRANSIENT
 FLOW MODEL CONTAINS CONSTANT-HEAD CELLS


 MAXIMUM STEPSIZE DURING WHICH ANY PARTICLE CANNOT MOVE MORE THAN ONE CELL
<<<<<<< Updated upstream
 = 0.1634    (WHEN MIN. R.F.=1)  AT K=   3, I=   2, J=  29

 MAXIMUM STEPSIZE WHICH MEETS STABILITY CRITERION OF THE ADVECTION TERM
 (FOR PURE FINITE-DIFFERENCE OPTION, MIXELM=0) 
 = 0.1133    (WHEN MIN. R.F.=1)  AT K=   3, I=   2, J=  28
=======
 = 0.1871    (WHEN MIN. R.F.=1)  AT K=   3, I=   2, J=  31

 MAXIMUM STEPSIZE WHICH MEETS STABILITY CRITERION OF THE ADVECTION TERM
 (FOR PURE FINITE-DIFFERENCE OPTION, MIXELM=0) 
 = 0.1249    (WHEN MIN. R.F.=1)  AT K=   3, I=   2, J=  30
>>>>>>> Stashed changes


 TOTAL NUMBER OF POINT SOURCES/SINKS PRESENT IN THE FLOW MODEL =   240

 MAXIMUM STEPSIZE WHICH MEETS STABILITY CRITERION OF THE SINK & SOURCE TERM
 = 0.1000E+31(WHEN MIN. R.F.=1)  AT K=   0, I=   0, J=   0

 MAXIMUM STEPSIZE WHICH MEETS STABILITY CRITERION OF THE DISPERSION TERM
<<<<<<< Updated upstream
 = 0.6201E-02(WHEN MIN. R.F.=1)  AT K=   3, I=   2, J=  31
     1 CALLS TO GCG PACKAGE FOR TRANSPORT TIME STEP   9 IN FLOW TIME STEP  39 STRESS PERIOD   2
     7 TOTAL ITERATIONS
  MAXIMUM CONCENTRATION CHANGES FOR EACH ITERATION:
  MAX. CHANGE LAYER,ROW,COL MAX. CHANGE LAYER,ROW,COL MAX. CHANGE LAYER,ROW,COL MAX. CHANGE LAYER,ROW,COL MAX. CHANGE LAYER,ROW,COL
 ------------------------------------------------------------------------------------------------------------------------------------
   0.2193E-03 ( 13,  3, 53)  0.1578E-04 (  5,  2, 61)  0.3261E-05 (  6,  1, 55)  0.1090E-05 (  3,  3, 31)  0.4745E-06 (  3,  3, 30)
   0.2151E-06 (  3,  3, 31)  0.6735E-07 (  3,  3, 30)


                                          ================================================
                                                         FROM TIME =   40.000     TO    41.000    
=======
 = 0.6706E-02(WHEN MIN. R.F.=1)  AT K=   3, I=   2, J=  30
     1 CALLS TO GCG PACKAGE FOR TRANSPORT TIME STEP   3 IN FLOW TIME STEP  33 STRESS PERIOD   2
    17 TOTAL ITERATIONS
0WARNING: NUMERICAL OSCILLATION ENCOUNTERED
 ONE OR MORE CELL CONCENTRATIONS LESS THAN CRHOREF
 SMALLEST DENSITY =  0.100E+04
 AT CELL (I,J,K) = (   3,  60,  27)
>>>>>>> Stashed changes

 
 SOLVING FOR HEAD 
 FLOW MODEL IS TRANSIENT
 FLOW MODEL CONTAINS CONSTANT-HEAD CELLS


 MAXIMUM STEPSIZE DURING WHICH ANY PARTICLE CANNOT MOVE MORE THAN ONE CELL
<<<<<<< Updated upstream
 = 0.1634    (WHEN MIN. R.F.=1)  AT K=   3, I=   2, J=  29

 MAXIMUM STEPSIZE WHICH MEETS STABILITY CRITERION OF THE ADVECTION TERM
 (FOR PURE FINITE-DIFFERENCE OPTION, MIXELM=0) 
 = 0.1133    (WHEN MIN. R.F.=1)  AT K=   3, I=   2, J=  28
=======
 = 0.1871    (WHEN MIN. R.F.=1)  AT K=   3, I=   2, J=  31

 MAXIMUM STEPSIZE WHICH MEETS STABILITY CRITERION OF THE ADVECTION TERM
 (FOR PURE FINITE-DIFFERENCE OPTION, MIXELM=0) 
 = 0.1249    (WHEN MIN. R.F.=1)  AT K=   3, I=   2, J=  30
>>>>>>> Stashed changes


 TOTAL NUMBER OF POINT SOURCES/SINKS PRESENT IN THE FLOW MODEL =   240

 MAXIMUM STEPSIZE WHICH MEETS STABILITY CRITERION OF THE SINK & SOURCE TERM
 = 0.1000E+31(WHEN MIN. R.F.=1)  AT K=   0, I=   0, J=   0

 MAXIMUM STEPSIZE WHICH MEETS STABILITY CRITERION OF THE DISPERSION TERM
<<<<<<< Updated upstream
 = 0.6201E-02(WHEN MIN. R.F.=1)  AT K=   3, I=   2, J=  31


     1 CALLS TO GCG PACKAGE FOR TRANSPORT TIME STEP   1 IN FLOW TIME STEP  40 STRESS PERIOD   2
    16 TOTAL ITERATIONS

 NO OUTPUT CONTROL FOR STRESS PERIOD    2   TIME STEP  40
=======
 = 0.6706E-02(WHEN MIN. R.F.=1)  AT K=   3, I=   2, J=  30
     1 CALLS TO GCG PACKAGE FOR TRANSPORT TIME STEP   4 IN FLOW TIME STEP  33 STRESS PERIOD   2
    17 TOTAL ITERATIONS
0WARNING: NUMERICAL OSCILLATION ENCOUNTERED
 ONE OR MORE CELL CONCENTRATIONS LESS THAN CRHOREF
 SMALLEST DENSITY =  0.100E+04
 AT CELL (I,J,K) = (   3,  60,  27)

>>>>>>> Stashed changes
 
 SOLVING FOR HEAD 
 FLOW MODEL IS TRANSIENT
 FLOW MODEL CONTAINS CONSTANT-HEAD CELLS


 MAXIMUM STEPSIZE DURING WHICH ANY PARTICLE CANNOT MOVE MORE THAN ONE CELL
<<<<<<< Updated upstream
 = 0.1634    (WHEN MIN. R.F.=1)  AT K=   3, I=   2, J=  29

 MAXIMUM STEPSIZE WHICH MEETS STABILITY CRITERION OF THE ADVECTION TERM
 (FOR PURE FINITE-DIFFERENCE OPTION, MIXELM=0) 
 = 0.1133    (WHEN MIN. R.F.=1)  AT K=   3, I=   2, J=  28
=======
 = 0.1871    (WHEN MIN. R.F.=1)  AT K=   3, I=   2, J=  31

 MAXIMUM STEPSIZE WHICH MEETS STABILITY CRITERION OF THE ADVECTION TERM
 (FOR PURE FINITE-DIFFERENCE OPTION, MIXELM=0) 
 = 0.1249    (WHEN MIN. R.F.=1)  AT K=   3, I=   2, J=  30
>>>>>>> Stashed changes


 TOTAL NUMBER OF POINT SOURCES/SINKS PRESENT IN THE FLOW MODEL =   240

 MAXIMUM STEPSIZE WHICH MEETS STABILITY CRITERION OF THE SINK & SOURCE TERM
 = 0.1000E+31(WHEN MIN. R.F.=1)  AT K=   0, I=   0, J=   0

 MAXIMUM STEPSIZE WHICH MEETS STABILITY CRITERION OF THE DISPERSION TERM
<<<<<<< Updated upstream
 = 0.6201E-02(WHEN MIN. R.F.=1)  AT K=   3, I=   2, J=  31
     1 CALLS TO GCG PACKAGE FOR TRANSPORT TIME STEP   2 IN FLOW TIME STEP  40 STRESS PERIOD   2
    16 TOTAL ITERATIONS
=======
 = 0.6706E-02(WHEN MIN. R.F.=1)  AT K=   3, I=   2, J=  30
     1 CALLS TO GCG PACKAGE FOR TRANSPORT TIME STEP   5 IN FLOW TIME STEP  33 STRESS PERIOD   2
    17 TOTAL ITERATIONS
0WARNING: NUMERICAL OSCILLATION ENCOUNTERED
 ONE OR MORE CELL CONCENTRATIONS LESS THAN CRHOREF
 SMALLEST DENSITY =  0.100E+04
 AT CELL (I,J,K) = (   3,  60,  27)

>>>>>>> Stashed changes
 
 SOLVING FOR HEAD 
 FLOW MODEL IS TRANSIENT
 FLOW MODEL CONTAINS CONSTANT-HEAD CELLS


 MAXIMUM STEPSIZE DURING WHICH ANY PARTICLE CANNOT MOVE MORE THAN ONE CELL
<<<<<<< Updated upstream
 = 0.1634    (WHEN MIN. R.F.=1)  AT K=   3, I=   2, J=  29

 MAXIMUM STEPSIZE WHICH MEETS STABILITY CRITERION OF THE ADVECTION TERM
 (FOR PURE FINITE-DIFFERENCE OPTION, MIXELM=0) 
 = 0.1133    (WHEN MIN. R.F.=1)  AT K=   3, I=   2, J=  28
=======
 = 0.1871    (WHEN MIN. R.F.=1)  AT K=   3, I=   2, J=  31

 MAXIMUM STEPSIZE WHICH MEETS STABILITY CRITERION OF THE ADVECTION TERM
 (FOR PURE FINITE-DIFFERENCE OPTION, MIXELM=0) 
 = 0.1249    (WHEN MIN. R.F.=1)  AT K=   3, I=   2, J=  30
>>>>>>> Stashed changes


 TOTAL NUMBER OF POINT SOURCES/SINKS PRESENT IN THE FLOW MODEL =   240

 MAXIMUM STEPSIZE WHICH MEETS STABILITY CRITERION OF THE SINK & SOURCE TERM
 = 0.1000E+31(WHEN MIN. R.F.=1)  AT K=   0, I=   0, J=   0

 MAXIMUM STEPSIZE WHICH MEETS STABILITY CRITERION OF THE DISPERSION TERM
<<<<<<< Updated upstream
 = 0.6201E-02(WHEN MIN. R.F.=1)  AT K=   3, I=   2, J=  31
     1 CALLS TO GCG PACKAGE FOR TRANSPORT TIME STEP   3 IN FLOW TIME STEP  40 STRESS PERIOD   2
    16 TOTAL ITERATIONS
=======
 = 0.6706E-02(WHEN MIN. R.F.=1)  AT K=   3, I=   2, J=  30
     1 CALLS TO GCG PACKAGE FOR TRANSPORT TIME STEP   6 IN FLOW TIME STEP  33 STRESS PERIOD   2
    17 TOTAL ITERATIONS
0WARNING: NUMERICAL OSCILLATION ENCOUNTERED
 ONE OR MORE CELL CONCENTRATIONS LESS THAN CRHOREF
 SMALLEST DENSITY =  0.100E+04
 AT CELL (I,J,K) = (   3,  60,  27)

>>>>>>> Stashed changes
 
 SOLVING FOR HEAD 
 FLOW MODEL IS TRANSIENT
 FLOW MODEL CONTAINS CONSTANT-HEAD CELLS


 MAXIMUM STEPSIZE DURING WHICH ANY PARTICLE CANNOT MOVE MORE THAN ONE CELL
<<<<<<< Updated upstream
 = 0.1634    (WHEN MIN. R.F.=1)  AT K=   3, I=   2, J=  29

 MAXIMUM STEPSIZE WHICH MEETS STABILITY CRITERION OF THE ADVECTION TERM
 (FOR PURE FINITE-DIFFERENCE OPTION, MIXELM=0) 
 = 0.1133    (WHEN MIN. R.F.=1)  AT K=   3, I=   2, J=  28
=======
 = 0.1871    (WHEN MIN. R.F.=1)  AT K=   3, I=   2, J=  31

 MAXIMUM STEPSIZE WHICH MEETS STABILITY CRITERION OF THE ADVECTION TERM
 (FOR PURE FINITE-DIFFERENCE OPTION, MIXELM=0) 
 = 0.1249    (WHEN MIN. R.F.=1)  AT K=   3, I=   2, J=  30
>>>>>>> Stashed changes


 TOTAL NUMBER OF POINT SOURCES/SINKS PRESENT IN THE FLOW MODEL =   240

 MAXIMUM STEPSIZE WHICH MEETS STABILITY CRITERION OF THE SINK & SOURCE TERM
 = 0.1000E+31(WHEN MIN. R.F.=1)  AT K=   0, I=   0, J=   0

 MAXIMUM STEPSIZE WHICH MEETS STABILITY CRITERION OF THE DISPERSION TERM
<<<<<<< Updated upstream
 = 0.6201E-02(WHEN MIN. R.F.=1)  AT K=   3, I=   2, J=  31
     1 CALLS TO GCG PACKAGE FOR TRANSPORT TIME STEP   4 IN FLOW TIME STEP  40 STRESS PERIOD   2
    16 TOTAL ITERATIONS
=======
 = 0.6706E-02(WHEN MIN. R.F.=1)  AT K=   3, I=   2, J=  30
     1 CALLS TO GCG PACKAGE FOR TRANSPORT TIME STEP   7 IN FLOW TIME STEP  33 STRESS PERIOD   2
    17 TOTAL ITERATIONS
0WARNING: NUMERICAL OSCILLATION ENCOUNTERED
 ONE OR MORE CELL CONCENTRATIONS LESS THAN CRHOREF
 SMALLEST DENSITY =  0.100E+04
 AT CELL (I,J,K) = (   3,  60,  27)

>>>>>>> Stashed changes
 
 SOLVING FOR HEAD 
 FLOW MODEL IS TRANSIENT
 FLOW MODEL CONTAINS CONSTANT-HEAD CELLS


 MAXIMUM STEPSIZE DURING WHICH ANY PARTICLE CANNOT MOVE MORE THAN ONE CELL
<<<<<<< Updated upstream
 = 0.1634    (WHEN MIN. R.F.=1)  AT K=   3, I=   2, J=  29

 MAXIMUM STEPSIZE WHICH MEETS STABILITY CRITERION OF THE ADVECTION TERM
 (FOR PURE FINITE-DIFFERENCE OPTION, MIXELM=0) 
 = 0.1133    (WHEN MIN. R.F.=1)  AT K=   3, I=   2, J=  28
=======
 = 0.1871    (WHEN MIN. R.F.=1)  AT K=   3, I=   2, J=  31

 MAXIMUM STEPSIZE WHICH MEETS STABILITY CRITERION OF THE ADVECTION TERM
 (FOR PURE FINITE-DIFFERENCE OPTION, MIXELM=0) 
 = 0.1249    (WHEN MIN. R.F.=1)  AT K=   3, I=   2, J=  30
>>>>>>> Stashed changes


 TOTAL NUMBER OF POINT SOURCES/SINKS PRESENT IN THE FLOW MODEL =   240

 MAXIMUM STEPSIZE WHICH MEETS STABILITY CRITERION OF THE SINK & SOURCE TERM
 = 0.1000E+31(WHEN MIN. R.F.=1)  AT K=   0, I=   0, J=   0

 MAXIMUM STEPSIZE WHICH MEETS STABILITY CRITERION OF THE DISPERSION TERM
<<<<<<< Updated upstream
 = 0.6201E-02(WHEN MIN. R.F.=1)  AT K=   3, I=   2, J=  31
     1 CALLS TO GCG PACKAGE FOR TRANSPORT TIME STEP   5 IN FLOW TIME STEP  40 STRESS PERIOD   2
    16 TOTAL ITERATIONS
 
 SOLVING FOR HEAD 
 FLOW MODEL IS TRANSIENT
 FLOW MODEL CONTAINS CONSTANT-HEAD CELLS


 MAXIMUM STEPSIZE DURING WHICH ANY PARTICLE CANNOT MOVE MORE THAN ONE CELL
 = 0.1634    (WHEN MIN. R.F.=1)  AT K=   3, I=   2, J=  29

 MAXIMUM STEPSIZE WHICH MEETS STABILITY CRITERION OF THE ADVECTION TERM
 (FOR PURE FINITE-DIFFERENCE OPTION, MIXELM=0) 
 = 0.1133    (WHEN MIN. R.F.=1)  AT K=   3, I=   2, J=  28


 TOTAL NUMBER OF POINT SOURCES/SINKS PRESENT IN THE FLOW MODEL =   240

 MAXIMUM STEPSIZE WHICH MEETS STABILITY CRITERION OF THE SINK & SOURCE TERM
 = 0.1000E+31(WHEN MIN. R.F.=1)  AT K=   0, I=   0, J=   0

 MAXIMUM STEPSIZE WHICH MEETS STABILITY CRITERION OF THE DISPERSION TERM
 = 0.6201E-02(WHEN MIN. R.F.=1)  AT K=   3, I=   2, J=  31
     1 CALLS TO GCG PACKAGE FOR TRANSPORT TIME STEP   6 IN FLOW TIME STEP  40 STRESS PERIOD   2
    16 TOTAL ITERATIONS
=======
 = 0.6706E-02(WHEN MIN. R.F.=1)  AT K=   3, I=   2, J=  30
     1 CALLS TO GCG PACKAGE FOR TRANSPORT TIME STEP   8 IN FLOW TIME STEP  33 STRESS PERIOD   2
     7 TOTAL ITERATIONS
  MAXIMUM CONCENTRATION CHANGES FOR EACH ITERATION:
  MAX. CHANGE LAYER,ROW,COL MAX. CHANGE LAYER,ROW,COL MAX. CHANGE LAYER,ROW,COL MAX. CHANGE LAYER,ROW,COL MAX. CHANGE LAYER,ROW,COL
 ------------------------------------------------------------------------------------------------------------------------------------
   0.2295E-03 ( 13,  2, 55)  0.1417E-04 (  6,  1, 52)  0.3415E-05 (  4,  2, 44)  0.1246E-05 (  3,  2, 37)  0.3110E-06 (  4,  2, 37)
   0.1088E-06 (  3,  1, 31)  0.3359E-07 (  4,  3, 27)
 UBDSV1 SAVING "         STORAGE" ON UNIT  53 AT TIME STEP 33, STRESS PERIOD   2
 UBDSV2 SAVING "   CONSTANT HEAD" ON UNIT  53 AT TIME STEP 33, STRESS PERIOD   2
 UBDSV1 SAVING "FLOW RIGHT FACE " ON UNIT  53 AT TIME STEP 33, STRESS PERIOD   2
 UBDSV1 SAVING "FLOW FRONT FACE " ON UNIT  53 AT TIME STEP 33, STRESS PERIOD   2
 UBDSV1 SAVING "FLOW LOWER FACE " ON UNIT  53 AT TIME STEP 33, STRESS PERIOD   2
 UBDSV1 SAVING "            DCDT" ON UNIT  53 AT TIME STEP 33, STRESS PERIOD   2
0WARNING: NUMERICAL OSCILLATION ENCOUNTERED
 ONE OR MORE CELL CONCENTRATIONS LESS THAN CRHOREF
 SMALLEST DENSITY =  0.100E+04
 AT CELL (I,J,K) = (   3,  60,  27)


 HEAD WILL BE SAVED ON UNIT   51 AT END OF TIME STEP  33, STRESS PERIOD    2


                                          ================================================
                                                         FROM TIME =   34.000     TO    35.000    

>>>>>>> Stashed changes
 
 SOLVING FOR HEAD 
 FLOW MODEL IS TRANSIENT
 FLOW MODEL CONTAINS CONSTANT-HEAD CELLS


 MAXIMUM STEPSIZE DURING WHICH ANY PARTICLE CANNOT MOVE MORE THAN ONE CELL
<<<<<<< Updated upstream
 = 0.1634    (WHEN MIN. R.F.=1)  AT K=   3, I=   2, J=  29

 MAXIMUM STEPSIZE WHICH MEETS STABILITY CRITERION OF THE ADVECTION TERM
 (FOR PURE FINITE-DIFFERENCE OPTION, MIXELM=0) 
 = 0.1133    (WHEN MIN. R.F.=1)  AT K=   3, I=   2, J=  28
=======
 = 0.1871    (WHEN MIN. R.F.=1)  AT K=   3, I=   2, J=  31

 MAXIMUM STEPSIZE WHICH MEETS STABILITY CRITERION OF THE ADVECTION TERM
 (FOR PURE FINITE-DIFFERENCE OPTION, MIXELM=0) 
 = 0.1249    (WHEN MIN. R.F.=1)  AT K=   3, I=   2, J=  30
>>>>>>> Stashed changes


 TOTAL NUMBER OF POINT SOURCES/SINKS PRESENT IN THE FLOW MODEL =   240

 MAXIMUM STEPSIZE WHICH MEETS STABILITY CRITERION OF THE SINK & SOURCE TERM
 = 0.1000E+31(WHEN MIN. R.F.=1)  AT K=   0, I=   0, J=   0

 MAXIMUM STEPSIZE WHICH MEETS STABILITY CRITERION OF THE DISPERSION TERM
<<<<<<< Updated upstream
 = 0.6201E-02(WHEN MIN. R.F.=1)  AT K=   3, I=   2, J=  31
     1 CALLS TO GCG PACKAGE FOR TRANSPORT TIME STEP   7 IN FLOW TIME STEP  40 STRESS PERIOD   2
    16 TOTAL ITERATIONS
=======
 = 0.6706E-02(WHEN MIN. R.F.=1)  AT K=   3, I=   2, J=  30


     1 CALLS TO GCG PACKAGE FOR TRANSPORT TIME STEP   1 IN FLOW TIME STEP  34 STRESS PERIOD   2
    17 TOTAL ITERATIONS

 OUTPUT CONTROL FOR STRESS PERIOD    2   TIME STEP  34
    SAVE HEAD FOR ALL LAYERS
    SAVE BUDGET
0WARNING: NUMERICAL OSCILLATION ENCOUNTERED
 ONE OR MORE CELL CONCENTRATIONS LESS THAN CRHOREF
 SMALLEST DENSITY =  0.100E+04
 AT CELL (I,J,K) = (   3,  60,  27)

>>>>>>> Stashed changes
 
 SOLVING FOR HEAD 
 FLOW MODEL IS TRANSIENT
 FLOW MODEL CONTAINS CONSTANT-HEAD CELLS


 MAXIMUM STEPSIZE DURING WHICH ANY PARTICLE CANNOT MOVE MORE THAN ONE CELL
<<<<<<< Updated upstream
 = 0.1634    (WHEN MIN. R.F.=1)  AT K=   3, I=   2, J=  29

 MAXIMUM STEPSIZE WHICH MEETS STABILITY CRITERION OF THE ADVECTION TERM
 (FOR PURE FINITE-DIFFERENCE OPTION, MIXELM=0) 
 = 0.1133    (WHEN MIN. R.F.=1)  AT K=   3, I=   2, J=  28
=======
 = 0.1871    (WHEN MIN. R.F.=1)  AT K=   3, I=   2, J=  31

 MAXIMUM STEPSIZE WHICH MEETS STABILITY CRITERION OF THE ADVECTION TERM
 (FOR PURE FINITE-DIFFERENCE OPTION, MIXELM=0) 
 = 0.1249    (WHEN MIN. R.F.=1)  AT K=   3, I=   2, J=  30
>>>>>>> Stashed changes


 TOTAL NUMBER OF POINT SOURCES/SINKS PRESENT IN THE FLOW MODEL =   240

 MAXIMUM STEPSIZE WHICH MEETS STABILITY CRITERION OF THE SINK & SOURCE TERM
 = 0.1000E+31(WHEN MIN. R.F.=1)  AT K=   0, I=   0, J=   0

 MAXIMUM STEPSIZE WHICH MEETS STABILITY CRITERION OF THE DISPERSION TERM
<<<<<<< Updated upstream
 = 0.6201E-02(WHEN MIN. R.F.=1)  AT K=   3, I=   2, J=  31
     1 CALLS TO GCG PACKAGE FOR TRANSPORT TIME STEP   8 IN FLOW TIME STEP  40 STRESS PERIOD   2
    16 TOTAL ITERATIONS
=======
 = 0.6706E-02(WHEN MIN. R.F.=1)  AT K=   3, I=   2, J=  30
     1 CALLS TO GCG PACKAGE FOR TRANSPORT TIME STEP   2 IN FLOW TIME STEP  34 STRESS PERIOD   2
    17 TOTAL ITERATIONS
0WARNING: NUMERICAL OSCILLATION ENCOUNTERED
 ONE OR MORE CELL CONCENTRATIONS LESS THAN CRHOREF
 SMALLEST DENSITY =  0.100E+04
 AT CELL (I,J,K) = (   3,  60,  27)

>>>>>>> Stashed changes
 
 SOLVING FOR HEAD 
 FLOW MODEL IS TRANSIENT
 FLOW MODEL CONTAINS CONSTANT-HEAD CELLS


 MAXIMUM STEPSIZE DURING WHICH ANY PARTICLE CANNOT MOVE MORE THAN ONE CELL
<<<<<<< Updated upstream
 = 0.1634    (WHEN MIN. R.F.=1)  AT K=   3, I=   2, J=  29

 MAXIMUM STEPSIZE WHICH MEETS STABILITY CRITERION OF THE ADVECTION TERM
 (FOR PURE FINITE-DIFFERENCE OPTION, MIXELM=0) 
 = 0.1133    (WHEN MIN. R.F.=1)  AT K=   3, I=   2, J=  28
=======
 = 0.1871    (WHEN MIN. R.F.=1)  AT K=   3, I=   2, J=  31

 MAXIMUM STEPSIZE WHICH MEETS STABILITY CRITERION OF THE ADVECTION TERM
 (FOR PURE FINITE-DIFFERENCE OPTION, MIXELM=0) 
 = 0.1249    (WHEN MIN. R.F.=1)  AT K=   3, I=   2, J=  30
>>>>>>> Stashed changes


 TOTAL NUMBER OF POINT SOURCES/SINKS PRESENT IN THE FLOW MODEL =   240

 MAXIMUM STEPSIZE WHICH MEETS STABILITY CRITERION OF THE SINK & SOURCE TERM
 = 0.1000E+31(WHEN MIN. R.F.=1)  AT K=   0, I=   0, J=   0

 MAXIMUM STEPSIZE WHICH MEETS STABILITY CRITERION OF THE DISPERSION TERM
<<<<<<< Updated upstream
 = 0.6201E-02(WHEN MIN. R.F.=1)  AT K=   3, I=   2, J=  31
     1 CALLS TO GCG PACKAGE FOR TRANSPORT TIME STEP   9 IN FLOW TIME STEP  40 STRESS PERIOD   2
     7 TOTAL ITERATIONS
  MAXIMUM CONCENTRATION CHANGES FOR EACH ITERATION:
  MAX. CHANGE LAYER,ROW,COL MAX. CHANGE LAYER,ROW,COL MAX. CHANGE LAYER,ROW,COL MAX. CHANGE LAYER,ROW,COL MAX. CHANGE LAYER,ROW,COL
 ------------------------------------------------------------------------------------------------------------------------------------
   0.2162E-03 ( 13,  3, 53)  0.1514E-04 (  5,  2, 62)  0.3135E-05 (  6,  1, 55)  0.1040E-05 (  3,  3, 31)  0.4538E-06 (  3,  3, 30)
   0.2053E-06 (  3,  3, 31)  0.6460E-07 (  3,  3, 30)


                                          ================================================
                                                         FROM TIME =   41.000     TO    42.000    
=======
 = 0.6706E-02(WHEN MIN. R.F.=1)  AT K=   3, I=   2, J=  30
     1 CALLS TO GCG PACKAGE FOR TRANSPORT TIME STEP   3 IN FLOW TIME STEP  34 STRESS PERIOD   2
    17 TOTAL ITERATIONS
0WARNING: NUMERICAL OSCILLATION ENCOUNTERED
 ONE OR MORE CELL CONCENTRATIONS LESS THAN CRHOREF
 SMALLEST DENSITY =  0.100E+04
 AT CELL (I,J,K) = (   3,  60,  27)
>>>>>>> Stashed changes

 
 SOLVING FOR HEAD 
 FLOW MODEL IS TRANSIENT
 FLOW MODEL CONTAINS CONSTANT-HEAD CELLS


 MAXIMUM STEPSIZE DURING WHICH ANY PARTICLE CANNOT MOVE MORE THAN ONE CELL
<<<<<<< Updated upstream
 = 0.1634    (WHEN MIN. R.F.=1)  AT K=   3, I=   2, J=  29

 MAXIMUM STEPSIZE WHICH MEETS STABILITY CRITERION OF THE ADVECTION TERM
 (FOR PURE FINITE-DIFFERENCE OPTION, MIXELM=0) 
 = 0.1133    (WHEN MIN. R.F.=1)  AT K=   3, I=   2, J=  28
=======
 = 0.1871    (WHEN MIN. R.F.=1)  AT K=   3, I=   2, J=  31

 MAXIMUM STEPSIZE WHICH MEETS STABILITY CRITERION OF THE ADVECTION TERM
 (FOR PURE FINITE-DIFFERENCE OPTION, MIXELM=0) 
 = 0.1249    (WHEN MIN. R.F.=1)  AT K=   3, I=   2, J=  30
>>>>>>> Stashed changes


 TOTAL NUMBER OF POINT SOURCES/SINKS PRESENT IN THE FLOW MODEL =   240

 MAXIMUM STEPSIZE WHICH MEETS STABILITY CRITERION OF THE SINK & SOURCE TERM
 = 0.1000E+31(WHEN MIN. R.F.=1)  AT K=   0, I=   0, J=   0

 MAXIMUM STEPSIZE WHICH MEETS STABILITY CRITERION OF THE DISPERSION TERM
<<<<<<< Updated upstream
 = 0.6201E-02(WHEN MIN. R.F.=1)  AT K=   3, I=   2, J=  31


     1 CALLS TO GCG PACKAGE FOR TRANSPORT TIME STEP   1 IN FLOW TIME STEP  41 STRESS PERIOD   2
    16 TOTAL ITERATIONS

 NO OUTPUT CONTROL FOR STRESS PERIOD    2   TIME STEP  41
=======
 = 0.6705E-02(WHEN MIN. R.F.=1)  AT K=   3, I=   2, J=  30
     1 CALLS TO GCG PACKAGE FOR TRANSPORT TIME STEP   4 IN FLOW TIME STEP  34 STRESS PERIOD   2
    17 TOTAL ITERATIONS
0WARNING: NUMERICAL OSCILLATION ENCOUNTERED
 ONE OR MORE CELL CONCENTRATIONS LESS THAN CRHOREF
 SMALLEST DENSITY =  0.100E+04
 AT CELL (I,J,K) = (   3,  60,  27)

>>>>>>> Stashed changes
 
 SOLVING FOR HEAD 
 FLOW MODEL IS TRANSIENT
 FLOW MODEL CONTAINS CONSTANT-HEAD CELLS


 MAXIMUM STEPSIZE DURING WHICH ANY PARTICLE CANNOT MOVE MORE THAN ONE CELL
<<<<<<< Updated upstream
 = 0.1634    (WHEN MIN. R.F.=1)  AT K=   3, I=   2, J=  29

 MAXIMUM STEPSIZE WHICH MEETS STABILITY CRITERION OF THE ADVECTION TERM
 (FOR PURE FINITE-DIFFERENCE OPTION, MIXELM=0) 
 = 0.1133    (WHEN MIN. R.F.=1)  AT K=   3, I=   2, J=  28
=======
 = 0.1871    (WHEN MIN. R.F.=1)  AT K=   3, I=   2, J=  31

 MAXIMUM STEPSIZE WHICH MEETS STABILITY CRITERION OF THE ADVECTION TERM
 (FOR PURE FINITE-DIFFERENCE OPTION, MIXELM=0) 
 = 0.1249    (WHEN MIN. R.F.=1)  AT K=   3, I=   2, J=  30
>>>>>>> Stashed changes


 TOTAL NUMBER OF POINT SOURCES/SINKS PRESENT IN THE FLOW MODEL =   240

 MAXIMUM STEPSIZE WHICH MEETS STABILITY CRITERION OF THE SINK & SOURCE TERM
 = 0.1000E+31(WHEN MIN. R.F.=1)  AT K=   0, I=   0, J=   0

 MAXIMUM STEPSIZE WHICH MEETS STABILITY CRITERION OF THE DISPERSION TERM
<<<<<<< Updated upstream
 = 0.6201E-02(WHEN MIN. R.F.=1)  AT K=   3, I=   2, J=  31
     1 CALLS TO GCG PACKAGE FOR TRANSPORT TIME STEP   2 IN FLOW TIME STEP  41 STRESS PERIOD   2
    16 TOTAL ITERATIONS
=======
 = 0.6705E-02(WHEN MIN. R.F.=1)  AT K=   3, I=   2, J=  30
     1 CALLS TO GCG PACKAGE FOR TRANSPORT TIME STEP   5 IN FLOW TIME STEP  34 STRESS PERIOD   2
    17 TOTAL ITERATIONS
0WARNING: NUMERICAL OSCILLATION ENCOUNTERED
 ONE OR MORE CELL CONCENTRATIONS LESS THAN CRHOREF
 SMALLEST DENSITY =  0.100E+04
 AT CELL (I,J,K) = (   3,  60,  27)

>>>>>>> Stashed changes
 
 SOLVING FOR HEAD 
 FLOW MODEL IS TRANSIENT
 FLOW MODEL CONTAINS CONSTANT-HEAD CELLS


 MAXIMUM STEPSIZE DURING WHICH ANY PARTICLE CANNOT MOVE MORE THAN ONE CELL
<<<<<<< Updated upstream
 = 0.1634    (WHEN MIN. R.F.=1)  AT K=   3, I=   2, J=  29

 MAXIMUM STEPSIZE WHICH MEETS STABILITY CRITERION OF THE ADVECTION TERM
 (FOR PURE FINITE-DIFFERENCE OPTION, MIXELM=0) 
 = 0.1133    (WHEN MIN. R.F.=1)  AT K=   3, I=   2, J=  28
=======
 = 0.1871    (WHEN MIN. R.F.=1)  AT K=   3, I=   2, J=  31

 MAXIMUM STEPSIZE WHICH MEETS STABILITY CRITERION OF THE ADVECTION TERM
 (FOR PURE FINITE-DIFFERENCE OPTION, MIXELM=0) 
 = 0.1249    (WHEN MIN. R.F.=1)  AT K=   3, I=   2, J=  30
>>>>>>> Stashed changes


 TOTAL NUMBER OF POINT SOURCES/SINKS PRESENT IN THE FLOW MODEL =   240

 MAXIMUM STEPSIZE WHICH MEETS STABILITY CRITERION OF THE SINK & SOURCE TERM
 = 0.1000E+31(WHEN MIN. R.F.=1)  AT K=   0, I=   0, J=   0

 MAXIMUM STEPSIZE WHICH MEETS STABILITY CRITERION OF THE DISPERSION TERM
<<<<<<< Updated upstream
 = 0.6200E-02(WHEN MIN. R.F.=1)  AT K=   3, I=   2, J=  31
     1 CALLS TO GCG PACKAGE FOR TRANSPORT TIME STEP   3 IN FLOW TIME STEP  41 STRESS PERIOD   2
    16 TOTAL ITERATIONS
=======
 = 0.6705E-02(WHEN MIN. R.F.=1)  AT K=   3, I=   2, J=  30
     1 CALLS TO GCG PACKAGE FOR TRANSPORT TIME STEP   6 IN FLOW TIME STEP  34 STRESS PERIOD   2
    17 TOTAL ITERATIONS
0WARNING: NUMERICAL OSCILLATION ENCOUNTERED
 ONE OR MORE CELL CONCENTRATIONS LESS THAN CRHOREF
 SMALLEST DENSITY =  0.100E+04
 AT CELL (I,J,K) = (   3,  60,  27)

>>>>>>> Stashed changes
 
 SOLVING FOR HEAD 
 FLOW MODEL IS TRANSIENT
 FLOW MODEL CONTAINS CONSTANT-HEAD CELLS


 MAXIMUM STEPSIZE DURING WHICH ANY PARTICLE CANNOT MOVE MORE THAN ONE CELL
<<<<<<< Updated upstream
 = 0.1634    (WHEN MIN. R.F.=1)  AT K=   3, I=   2, J=  29

 MAXIMUM STEPSIZE WHICH MEETS STABILITY CRITERION OF THE ADVECTION TERM
 (FOR PURE FINITE-DIFFERENCE OPTION, MIXELM=0) 
 = 0.1133    (WHEN MIN. R.F.=1)  AT K=   3, I=   2, J=  28
=======
 = 0.1871    (WHEN MIN. R.F.=1)  AT K=   3, I=   2, J=  31

 MAXIMUM STEPSIZE WHICH MEETS STABILITY CRITERION OF THE ADVECTION TERM
 (FOR PURE FINITE-DIFFERENCE OPTION, MIXELM=0) 
 = 0.1249    (WHEN MIN. R.F.=1)  AT K=   3, I=   2, J=  30
>>>>>>> Stashed changes


 TOTAL NUMBER OF POINT SOURCES/SINKS PRESENT IN THE FLOW MODEL =   240

 MAXIMUM STEPSIZE WHICH MEETS STABILITY CRITERION OF THE SINK & SOURCE TERM
 = 0.1000E+31(WHEN MIN. R.F.=1)  AT K=   0, I=   0, J=   0

 MAXIMUM STEPSIZE WHICH MEETS STABILITY CRITERION OF THE DISPERSION TERM
<<<<<<< Updated upstream
 = 0.6200E-02(WHEN MIN. R.F.=1)  AT K=   3, I=   2, J=  31
     1 CALLS TO GCG PACKAGE FOR TRANSPORT TIME STEP   4 IN FLOW TIME STEP  41 STRESS PERIOD   2
    16 TOTAL ITERATIONS
=======
 = 0.6705E-02(WHEN MIN. R.F.=1)  AT K=   3, I=   2, J=  30
     1 CALLS TO GCG PACKAGE FOR TRANSPORT TIME STEP   7 IN FLOW TIME STEP  34 STRESS PERIOD   2
    17 TOTAL ITERATIONS
0WARNING: NUMERICAL OSCILLATION ENCOUNTERED
 ONE OR MORE CELL CONCENTRATIONS LESS THAN CRHOREF
 SMALLEST DENSITY =  0.100E+04
 AT CELL (I,J,K) = (   3,  60,  27)

>>>>>>> Stashed changes
 
 SOLVING FOR HEAD 
 FLOW MODEL IS TRANSIENT
 FLOW MODEL CONTAINS CONSTANT-HEAD CELLS


 MAXIMUM STEPSIZE DURING WHICH ANY PARTICLE CANNOT MOVE MORE THAN ONE CELL
<<<<<<< Updated upstream
 = 0.1634    (WHEN MIN. R.F.=1)  AT K=   3, I=   2, J=  29

 MAXIMUM STEPSIZE WHICH MEETS STABILITY CRITERION OF THE ADVECTION TERM
 (FOR PURE FINITE-DIFFERENCE OPTION, MIXELM=0) 
 = 0.1133    (WHEN MIN. R.F.=1)  AT K=   3, I=   2, J=  28
=======
 = 0.1871    (WHEN MIN. R.F.=1)  AT K=   3, I=   2, J=  31

 MAXIMUM STEPSIZE WHICH MEETS STABILITY CRITERION OF THE ADVECTION TERM
 (FOR PURE FINITE-DIFFERENCE OPTION, MIXELM=0) 
 = 0.1249    (WHEN MIN. R.F.=1)  AT K=   3, I=   2, J=  30
>>>>>>> Stashed changes


 TOTAL NUMBER OF POINT SOURCES/SINKS PRESENT IN THE FLOW MODEL =   240

 MAXIMUM STEPSIZE WHICH MEETS STABILITY CRITERION OF THE SINK & SOURCE TERM
 = 0.1000E+31(WHEN MIN. R.F.=1)  AT K=   0, I=   0, J=   0

 MAXIMUM STEPSIZE WHICH MEETS STABILITY CRITERION OF THE DISPERSION TERM
<<<<<<< Updated upstream
 = 0.6200E-02(WHEN MIN. R.F.=1)  AT K=   3, I=   2, J=  31
     1 CALLS TO GCG PACKAGE FOR TRANSPORT TIME STEP   5 IN FLOW TIME STEP  41 STRESS PERIOD   2
    16 TOTAL ITERATIONS
=======
 = 0.6705E-02(WHEN MIN. R.F.=1)  AT K=   3, I=   2, J=  30
     1 CALLS TO GCG PACKAGE FOR TRANSPORT TIME STEP   8 IN FLOW TIME STEP  34 STRESS PERIOD   2
     7 TOTAL ITERATIONS
  MAXIMUM CONCENTRATION CHANGES FOR EACH ITERATION:
  MAX. CHANGE LAYER,ROW,COL MAX. CHANGE LAYER,ROW,COL MAX. CHANGE LAYER,ROW,COL MAX. CHANGE LAYER,ROW,COL MAX. CHANGE LAYER,ROW,COL
 ------------------------------------------------------------------------------------------------------------------------------------
   0.2224E-03 ( 13,  2, 55)  0.1343E-04 (  6,  1, 52)  0.3221E-05 (  4,  2, 44)  0.1176E-05 (  3,  2, 37)  0.2949E-06 (  4,  2, 37)
   0.1031E-06 (  3,  1, 31)  0.3196E-07 (  4,  3, 27)
 UBDSV1 SAVING "         STORAGE" ON UNIT  53 AT TIME STEP 34, STRESS PERIOD   2
 UBDSV2 SAVING "   CONSTANT HEAD" ON UNIT  53 AT TIME STEP 34, STRESS PERIOD   2
 UBDSV1 SAVING "FLOW RIGHT FACE " ON UNIT  53 AT TIME STEP 34, STRESS PERIOD   2
 UBDSV1 SAVING "FLOW FRONT FACE " ON UNIT  53 AT TIME STEP 34, STRESS PERIOD   2
 UBDSV1 SAVING "FLOW LOWER FACE " ON UNIT  53 AT TIME STEP 34, STRESS PERIOD   2
 UBDSV1 SAVING "            DCDT" ON UNIT  53 AT TIME STEP 34, STRESS PERIOD   2
0WARNING: NUMERICAL OSCILLATION ENCOUNTERED
 ONE OR MORE CELL CONCENTRATIONS LESS THAN CRHOREF
 SMALLEST DENSITY =  0.100E+04
 AT CELL (I,J,K) = (   3,  60,  27)


 HEAD WILL BE SAVED ON UNIT   51 AT END OF TIME STEP  34, STRESS PERIOD    2


                                          ================================================
                                                         FROM TIME =   35.000     TO    36.000    

>>>>>>> Stashed changes
 
 SOLVING FOR HEAD 
 FLOW MODEL IS TRANSIENT
 FLOW MODEL CONTAINS CONSTANT-HEAD CELLS


 MAXIMUM STEPSIZE DURING WHICH ANY PARTICLE CANNOT MOVE MORE THAN ONE CELL
<<<<<<< Updated upstream
 = 0.1634    (WHEN MIN. R.F.=1)  AT K=   3, I=   2, J=  29

 MAXIMUM STEPSIZE WHICH MEETS STABILITY CRITERION OF THE ADVECTION TERM
 (FOR PURE FINITE-DIFFERENCE OPTION, MIXELM=0) 
 = 0.1133    (WHEN MIN. R.F.=1)  AT K=   3, I=   2, J=  28
=======
 = 0.1871    (WHEN MIN. R.F.=1)  AT K=   3, I=   2, J=  31

 MAXIMUM STEPSIZE WHICH MEETS STABILITY CRITERION OF THE ADVECTION TERM
 (FOR PURE FINITE-DIFFERENCE OPTION, MIXELM=0) 
 = 0.1249    (WHEN MIN. R.F.=1)  AT K=   3, I=   2, J=  30
>>>>>>> Stashed changes


 TOTAL NUMBER OF POINT SOURCES/SINKS PRESENT IN THE FLOW MODEL =   240

 MAXIMUM STEPSIZE WHICH MEETS STABILITY CRITERION OF THE SINK & SOURCE TERM
 = 0.1000E+31(WHEN MIN. R.F.=1)  AT K=   0, I=   0, J=   0

 MAXIMUM STEPSIZE WHICH MEETS STABILITY CRITERION OF THE DISPERSION TERM
<<<<<<< Updated upstream
 = 0.6200E-02(WHEN MIN. R.F.=1)  AT K=   3, I=   2, J=  31
     1 CALLS TO GCG PACKAGE FOR TRANSPORT TIME STEP   6 IN FLOW TIME STEP  41 STRESS PERIOD   2
    16 TOTAL ITERATIONS
=======
 = 0.6705E-02(WHEN MIN. R.F.=1)  AT K=   3, I=   2, J=  30


     1 CALLS TO GCG PACKAGE FOR TRANSPORT TIME STEP   1 IN FLOW TIME STEP  35 STRESS PERIOD   2
    17 TOTAL ITERATIONS

 OUTPUT CONTROL FOR STRESS PERIOD    2   TIME STEP  35
    SAVE HEAD FOR ALL LAYERS
    SAVE BUDGET
0WARNING: NUMERICAL OSCILLATION ENCOUNTERED
 ONE OR MORE CELL CONCENTRATIONS LESS THAN CRHOREF
 SMALLEST DENSITY =  0.100E+04
 AT CELL (I,J,K) = (   3,  60,  27)

>>>>>>> Stashed changes
 
 SOLVING FOR HEAD 
 FLOW MODEL IS TRANSIENT
 FLOW MODEL CONTAINS CONSTANT-HEAD CELLS


 MAXIMUM STEPSIZE DURING WHICH ANY PARTICLE CANNOT MOVE MORE THAN ONE CELL
<<<<<<< Updated upstream
 = 0.1634    (WHEN MIN. R.F.=1)  AT K=   3, I=   2, J=  29

 MAXIMUM STEPSIZE WHICH MEETS STABILITY CRITERION OF THE ADVECTION TERM
 (FOR PURE FINITE-DIFFERENCE OPTION, MIXELM=0) 
 = 0.1133    (WHEN MIN. R.F.=1)  AT K=   3, I=   2, J=  28
=======
 = 0.1871    (WHEN MIN. R.F.=1)  AT K=   3, I=   2, J=  31

 MAXIMUM STEPSIZE WHICH MEETS STABILITY CRITERION OF THE ADVECTION TERM
 (FOR PURE FINITE-DIFFERENCE OPTION, MIXELM=0) 
 = 0.1249    (WHEN MIN. R.F.=1)  AT K=   3, I=   2, J=  30
>>>>>>> Stashed changes


 TOTAL NUMBER OF POINT SOURCES/SINKS PRESENT IN THE FLOW MODEL =   240

 MAXIMUM STEPSIZE WHICH MEETS STABILITY CRITERION OF THE SINK & SOURCE TERM
 = 0.1000E+31(WHEN MIN. R.F.=1)  AT K=   0, I=   0, J=   0

 MAXIMUM STEPSIZE WHICH MEETS STABILITY CRITERION OF THE DISPERSION TERM
<<<<<<< Updated upstream
 = 0.6200E-02(WHEN MIN. R.F.=1)  AT K=   3, I=   2, J=  31
     1 CALLS TO GCG PACKAGE FOR TRANSPORT TIME STEP   7 IN FLOW TIME STEP  41 STRESS PERIOD   2
    15 TOTAL ITERATIONS
=======
 = 0.6705E-02(WHEN MIN. R.F.=1)  AT K=   3, I=   2, J=  30
     1 CALLS TO GCG PACKAGE FOR TRANSPORT TIME STEP   2 IN FLOW TIME STEP  35 STRESS PERIOD   2
    17 TOTAL ITERATIONS
0WARNING: NUMERICAL OSCILLATION ENCOUNTERED
 ONE OR MORE CELL CONCENTRATIONS LESS THAN CRHOREF
 SMALLEST DENSITY =  0.100E+04
 AT CELL (I,J,K) = (   3,  60,  27)

>>>>>>> Stashed changes
 
 SOLVING FOR HEAD 
 FLOW MODEL IS TRANSIENT
 FLOW MODEL CONTAINS CONSTANT-HEAD CELLS


 MAXIMUM STEPSIZE DURING WHICH ANY PARTICLE CANNOT MOVE MORE THAN ONE CELL
<<<<<<< Updated upstream
 = 0.1634    (WHEN MIN. R.F.=1)  AT K=   3, I=   2, J=  29

 MAXIMUM STEPSIZE WHICH MEETS STABILITY CRITERION OF THE ADVECTION TERM
 (FOR PURE FINITE-DIFFERENCE OPTION, MIXELM=0) 
 = 0.1133    (WHEN MIN. R.F.=1)  AT K=   3, I=   2, J=  28
=======
 = 0.1871    (WHEN MIN. R.F.=1)  AT K=   3, I=   2, J=  31

 MAXIMUM STEPSIZE WHICH MEETS STABILITY CRITERION OF THE ADVECTION TERM
 (FOR PURE FINITE-DIFFERENCE OPTION, MIXELM=0) 
 = 0.1249    (WHEN MIN. R.F.=1)  AT K=   3, I=   2, J=  30
>>>>>>> Stashed changes


 TOTAL NUMBER OF POINT SOURCES/SINKS PRESENT IN THE FLOW MODEL =   240

 MAXIMUM STEPSIZE WHICH MEETS STABILITY CRITERION OF THE SINK & SOURCE TERM
 = 0.1000E+31(WHEN MIN. R.F.=1)  AT K=   0, I=   0, J=   0

 MAXIMUM STEPSIZE WHICH MEETS STABILITY CRITERION OF THE DISPERSION TERM
<<<<<<< Updated upstream
 = 0.6200E-02(WHEN MIN. R.F.=1)  AT K=   3, I=   2, J=  31
     1 CALLS TO GCG PACKAGE FOR TRANSPORT TIME STEP   8 IN FLOW TIME STEP  41 STRESS PERIOD   2
    16 TOTAL ITERATIONS
=======
 = 0.6705E-02(WHEN MIN. R.F.=1)  AT K=   3, I=   2, J=  30
     1 CALLS TO GCG PACKAGE FOR TRANSPORT TIME STEP   3 IN FLOW TIME STEP  35 STRESS PERIOD   2
    17 TOTAL ITERATIONS
0WARNING: NUMERICAL OSCILLATION ENCOUNTERED
 ONE OR MORE CELL CONCENTRATIONS LESS THAN CRHOREF
 SMALLEST DENSITY =  0.100E+04
 AT CELL (I,J,K) = (   3,  60,  27)

>>>>>>> Stashed changes
 
 SOLVING FOR HEAD 
 FLOW MODEL IS TRANSIENT
 FLOW MODEL CONTAINS CONSTANT-HEAD CELLS


 MAXIMUM STEPSIZE DURING WHICH ANY PARTICLE CANNOT MOVE MORE THAN ONE CELL
<<<<<<< Updated upstream
 = 0.1634    (WHEN MIN. R.F.=1)  AT K=   3, I=   2, J=  29

 MAXIMUM STEPSIZE WHICH MEETS STABILITY CRITERION OF THE ADVECTION TERM
 (FOR PURE FINITE-DIFFERENCE OPTION, MIXELM=0) 
 = 0.1133    (WHEN MIN. R.F.=1)  AT K=   3, I=   2, J=  28
=======
 = 0.1871    (WHEN MIN. R.F.=1)  AT K=   3, I=   2, J=  31

 MAXIMUM STEPSIZE WHICH MEETS STABILITY CRITERION OF THE ADVECTION TERM
 (FOR PURE FINITE-DIFFERENCE OPTION, MIXELM=0) 
 = 0.1249    (WHEN MIN. R.F.=1)  AT K=   3, I=   2, J=  30
>>>>>>> Stashed changes


 TOTAL NUMBER OF POINT SOURCES/SINKS PRESENT IN THE FLOW MODEL =   240

 MAXIMUM STEPSIZE WHICH MEETS STABILITY CRITERION OF THE SINK & SOURCE TERM
 = 0.1000E+31(WHEN MIN. R.F.=1)  AT K=   0, I=   0, J=   0

 MAXIMUM STEPSIZE WHICH MEETS STABILITY CRITERION OF THE DISPERSION TERM
<<<<<<< Updated upstream
 = 0.6200E-02(WHEN MIN. R.F.=1)  AT K=   3, I=   2, J=  31
     1 CALLS TO GCG PACKAGE FOR TRANSPORT TIME STEP   9 IN FLOW TIME STEP  41 STRESS PERIOD   2
     7 TOTAL ITERATIONS
  MAXIMUM CONCENTRATION CHANGES FOR EACH ITERATION:
  MAX. CHANGE LAYER,ROW,COL MAX. CHANGE LAYER,ROW,COL MAX. CHANGE LAYER,ROW,COL MAX. CHANGE LAYER,ROW,COL MAX. CHANGE LAYER,ROW,COL
 ------------------------------------------------------------------------------------------------------------------------------------
   0.2128E-03 ( 13,  3, 53)  0.1455E-04 (  5,  2, 62)  0.3014E-05 (  6,  1, 55)  0.9953E-06 (  3,  3, 31)  0.4346E-06 (  3,  3, 30)
   0.1984E-06 (  3,  3, 31)  0.6214E-07 (  3,  3, 30)


                                          ================================================
                                                         FROM TIME =   42.000     TO    43.000    
=======
 = 0.6705E-02(WHEN MIN. R.F.=1)  AT K=   3, I=   2, J=  30
     1 CALLS TO GCG PACKAGE FOR TRANSPORT TIME STEP   4 IN FLOW TIME STEP  35 STRESS PERIOD   2
    17 TOTAL ITERATIONS
0WARNING: NUMERICAL OSCILLATION ENCOUNTERED
 ONE OR MORE CELL CONCENTRATIONS LESS THAN CRHOREF
 SMALLEST DENSITY =  0.100E+04
 AT CELL (I,J,K) = (   3,  60,  27)
>>>>>>> Stashed changes

 
 SOLVING FOR HEAD 
 FLOW MODEL IS TRANSIENT
 FLOW MODEL CONTAINS CONSTANT-HEAD CELLS


 MAXIMUM STEPSIZE DURING WHICH ANY PARTICLE CANNOT MOVE MORE THAN ONE CELL
<<<<<<< Updated upstream
 = 0.1634    (WHEN MIN. R.F.=1)  AT K=   3, I=   2, J=  29

 MAXIMUM STEPSIZE WHICH MEETS STABILITY CRITERION OF THE ADVECTION TERM
 (FOR PURE FINITE-DIFFERENCE OPTION, MIXELM=0) 
 = 0.1133    (WHEN MIN. R.F.=1)  AT K=   3, I=   2, J=  28
=======
 = 0.1871    (WHEN MIN. R.F.=1)  AT K=   3, I=   2, J=  31

 MAXIMUM STEPSIZE WHICH MEETS STABILITY CRITERION OF THE ADVECTION TERM
 (FOR PURE FINITE-DIFFERENCE OPTION, MIXELM=0) 
 = 0.1249    (WHEN MIN. R.F.=1)  AT K=   3, I=   2, J=  30
>>>>>>> Stashed changes


 TOTAL NUMBER OF POINT SOURCES/SINKS PRESENT IN THE FLOW MODEL =   240

 MAXIMUM STEPSIZE WHICH MEETS STABILITY CRITERION OF THE SINK & SOURCE TERM
 = 0.1000E+31(WHEN MIN. R.F.=1)  AT K=   0, I=   0, J=   0

 MAXIMUM STEPSIZE WHICH MEETS STABILITY CRITERION OF THE DISPERSION TERM
<<<<<<< Updated upstream
 = 0.6200E-02(WHEN MIN. R.F.=1)  AT K=   3, I=   2, J=  31


     1 CALLS TO GCG PACKAGE FOR TRANSPORT TIME STEP   1 IN FLOW TIME STEP  42 STRESS PERIOD   2
    16 TOTAL ITERATIONS

 NO OUTPUT CONTROL FOR STRESS PERIOD    2   TIME STEP  42
=======
 = 0.6705E-02(WHEN MIN. R.F.=1)  AT K=   3, I=   2, J=  30
     1 CALLS TO GCG PACKAGE FOR TRANSPORT TIME STEP   5 IN FLOW TIME STEP  35 STRESS PERIOD   2
    17 TOTAL ITERATIONS
0WARNING: NUMERICAL OSCILLATION ENCOUNTERED
 ONE OR MORE CELL CONCENTRATIONS LESS THAN CRHOREF
 SMALLEST DENSITY =  0.100E+04
 AT CELL (I,J,K) = (   3,  60,  27)

>>>>>>> Stashed changes
 
 SOLVING FOR HEAD 
 FLOW MODEL IS TRANSIENT
 FLOW MODEL CONTAINS CONSTANT-HEAD CELLS


 MAXIMUM STEPSIZE DURING WHICH ANY PARTICLE CANNOT MOVE MORE THAN ONE CELL
<<<<<<< Updated upstream
 = 0.1634    (WHEN MIN. R.F.=1)  AT K=   3, I=   2, J=  29

 MAXIMUM STEPSIZE WHICH MEETS STABILITY CRITERION OF THE ADVECTION TERM
 (FOR PURE FINITE-DIFFERENCE OPTION, MIXELM=0) 
 = 0.1133    (WHEN MIN. R.F.=1)  AT K=   3, I=   2, J=  28
=======
 = 0.1871    (WHEN MIN. R.F.=1)  AT K=   3, I=   2, J=  31

 MAXIMUM STEPSIZE WHICH MEETS STABILITY CRITERION OF THE ADVECTION TERM
 (FOR PURE FINITE-DIFFERENCE OPTION, MIXELM=0) 
 = 0.1249    (WHEN MIN. R.F.=1)  AT K=   3, I=   2, J=  30
>>>>>>> Stashed changes


 TOTAL NUMBER OF POINT SOURCES/SINKS PRESENT IN THE FLOW MODEL =   240

 MAXIMUM STEPSIZE WHICH MEETS STABILITY CRITERION OF THE SINK & SOURCE TERM
 = 0.1000E+31(WHEN MIN. R.F.=1)  AT K=   0, I=   0, J=   0

 MAXIMUM STEPSIZE WHICH MEETS STABILITY CRITERION OF THE DISPERSION TERM
<<<<<<< Updated upstream
 = 0.6200E-02(WHEN MIN. R.F.=1)  AT K=   3, I=   2, J=  31
     1 CALLS TO GCG PACKAGE FOR TRANSPORT TIME STEP   2 IN FLOW TIME STEP  42 STRESS PERIOD   2
    15 TOTAL ITERATIONS
=======
 = 0.6705E-02(WHEN MIN. R.F.=1)  AT K=   3, I=   2, J=  30
     1 CALLS TO GCG PACKAGE FOR TRANSPORT TIME STEP   6 IN FLOW TIME STEP  35 STRESS PERIOD   2
    17 TOTAL ITERATIONS
0WARNING: NUMERICAL OSCILLATION ENCOUNTERED
 ONE OR MORE CELL CONCENTRATIONS LESS THAN CRHOREF
 SMALLEST DENSITY =  0.100E+04
 AT CELL (I,J,K) = (   3,  60,  27)

>>>>>>> Stashed changes
 
 SOLVING FOR HEAD 
 FLOW MODEL IS TRANSIENT
 FLOW MODEL CONTAINS CONSTANT-HEAD CELLS


 MAXIMUM STEPSIZE DURING WHICH ANY PARTICLE CANNOT MOVE MORE THAN ONE CELL
<<<<<<< Updated upstream
 = 0.1634    (WHEN MIN. R.F.=1)  AT K=   3, I=   2, J=  29

 MAXIMUM STEPSIZE WHICH MEETS STABILITY CRITERION OF THE ADVECTION TERM
 (FOR PURE FINITE-DIFFERENCE OPTION, MIXELM=0) 
 = 0.1133    (WHEN MIN. R.F.=1)  AT K=   3, I=   2, J=  28
=======
 = 0.1871    (WHEN MIN. R.F.=1)  AT K=   3, I=   2, J=  31

 MAXIMUM STEPSIZE WHICH MEETS STABILITY CRITERION OF THE ADVECTION TERM
 (FOR PURE FINITE-DIFFERENCE OPTION, MIXELM=0) 
 = 0.1249    (WHEN MIN. R.F.=1)  AT K=   3, I=   2, J=  30
>>>>>>> Stashed changes


 TOTAL NUMBER OF POINT SOURCES/SINKS PRESENT IN THE FLOW MODEL =   240

 MAXIMUM STEPSIZE WHICH MEETS STABILITY CRITERION OF THE SINK & SOURCE TERM
 = 0.1000E+31(WHEN MIN. R.F.=1)  AT K=   0, I=   0, J=   0

 MAXIMUM STEPSIZE WHICH MEETS STABILITY CRITERION OF THE DISPERSION TERM
<<<<<<< Updated upstream
 = 0.6200E-02(WHEN MIN. R.F.=1)  AT K=   3, I=   2, J=  31
     1 CALLS TO GCG PACKAGE FOR TRANSPORT TIME STEP   3 IN FLOW TIME STEP  42 STRESS PERIOD   2
    16 TOTAL ITERATIONS
=======
 = 0.6705E-02(WHEN MIN. R.F.=1)  AT K=   3, I=   2, J=  30
     1 CALLS TO GCG PACKAGE FOR TRANSPORT TIME STEP   7 IN FLOW TIME STEP  35 STRESS PERIOD   2
    17 TOTAL ITERATIONS
0WARNING: NUMERICAL OSCILLATION ENCOUNTERED
 ONE OR MORE CELL CONCENTRATIONS LESS THAN CRHOREF
 SMALLEST DENSITY =  0.100E+04
 AT CELL (I,J,K) = (   3,  60,  27)

>>>>>>> Stashed changes
 
 SOLVING FOR HEAD 
 FLOW MODEL IS TRANSIENT
 FLOW MODEL CONTAINS CONSTANT-HEAD CELLS


 MAXIMUM STEPSIZE DURING WHICH ANY PARTICLE CANNOT MOVE MORE THAN ONE CELL
<<<<<<< Updated upstream
 = 0.1634    (WHEN MIN. R.F.=1)  AT K=   3, I=   2, J=  29

 MAXIMUM STEPSIZE WHICH MEETS STABILITY CRITERION OF THE ADVECTION TERM
 (FOR PURE FINITE-DIFFERENCE OPTION, MIXELM=0) 
 = 0.1133    (WHEN MIN. R.F.=1)  AT K=   3, I=   2, J=  28
=======
 = 0.1871    (WHEN MIN. R.F.=1)  AT K=   3, I=   2, J=  31

 MAXIMUM STEPSIZE WHICH MEETS STABILITY CRITERION OF THE ADVECTION TERM
 (FOR PURE FINITE-DIFFERENCE OPTION, MIXELM=0) 
 = 0.1249    (WHEN MIN. R.F.=1)  AT K=   3, I=   2, J=  30
>>>>>>> Stashed changes


 TOTAL NUMBER OF POINT SOURCES/SINKS PRESENT IN THE FLOW MODEL =   240

 MAXIMUM STEPSIZE WHICH MEETS STABILITY CRITERION OF THE SINK & SOURCE TERM
 = 0.1000E+31(WHEN MIN. R.F.=1)  AT K=   0, I=   0, J=   0

 MAXIMUM STEPSIZE WHICH MEETS STABILITY CRITERION OF THE DISPERSION TERM
<<<<<<< Updated upstream
 = 0.6200E-02(WHEN MIN. R.F.=1)  AT K=   3, I=   2, J=  31
     1 CALLS TO GCG PACKAGE FOR TRANSPORT TIME STEP   4 IN FLOW TIME STEP  42 STRESS PERIOD   2
    15 TOTAL ITERATIONS
=======
 = 0.6705E-02(WHEN MIN. R.F.=1)  AT K=   3, I=   2, J=  30
     1 CALLS TO GCG PACKAGE FOR TRANSPORT TIME STEP   8 IN FLOW TIME STEP  35 STRESS PERIOD   2
     6 TOTAL ITERATIONS
  MAXIMUM CONCENTRATION CHANGES FOR EACH ITERATION:
  MAX. CHANGE LAYER,ROW,COL MAX. CHANGE LAYER,ROW,COL MAX. CHANGE LAYER,ROW,COL MAX. CHANGE LAYER,ROW,COL MAX. CHANGE LAYER,ROW,COL
 ------------------------------------------------------------------------------------------------------------------------------------
   0.2154E-03 ( 13,  2, 55)  0.1273E-04 (  6,  1, 52)  0.3044E-05 (  4,  2, 44)  0.1112E-05 (  3,  2, 37)  0.2800E-06 (  4,  2, 37)
   0.9778E-07 (  3,  1, 31)
 UBDSV1 SAVING "         STORAGE" ON UNIT  53 AT TIME STEP 35, STRESS PERIOD   2
 UBDSV2 SAVING "   CONSTANT HEAD" ON UNIT  53 AT TIME STEP 35, STRESS PERIOD   2
 UBDSV1 SAVING "FLOW RIGHT FACE " ON UNIT  53 AT TIME STEP 35, STRESS PERIOD   2
 UBDSV1 SAVING "FLOW FRONT FACE " ON UNIT  53 AT TIME STEP 35, STRESS PERIOD   2
 UBDSV1 SAVING "FLOW LOWER FACE " ON UNIT  53 AT TIME STEP 35, STRESS PERIOD   2
 UBDSV1 SAVING "            DCDT" ON UNIT  53 AT TIME STEP 35, STRESS PERIOD   2
0WARNING: NUMERICAL OSCILLATION ENCOUNTERED
 ONE OR MORE CELL CONCENTRATIONS LESS THAN CRHOREF
 SMALLEST DENSITY =  0.100E+04
 AT CELL (I,J,K) = (   3,  60,  27)


 HEAD WILL BE SAVED ON UNIT   51 AT END OF TIME STEP  35, STRESS PERIOD    2


                                          ================================================
                                                         FROM TIME =   36.000     TO    37.000    

>>>>>>> Stashed changes
 
 SOLVING FOR HEAD 
 FLOW MODEL IS TRANSIENT
 FLOW MODEL CONTAINS CONSTANT-HEAD CELLS


 MAXIMUM STEPSIZE DURING WHICH ANY PARTICLE CANNOT MOVE MORE THAN ONE CELL
<<<<<<< Updated upstream
 = 0.1634    (WHEN MIN. R.F.=1)  AT K=   3, I=   2, J=  29

 MAXIMUM STEPSIZE WHICH MEETS STABILITY CRITERION OF THE ADVECTION TERM
 (FOR PURE FINITE-DIFFERENCE OPTION, MIXELM=0) 
 = 0.1133    (WHEN MIN. R.F.=1)  AT K=   3, I=   2, J=  28
=======
 = 0.1871    (WHEN MIN. R.F.=1)  AT K=   3, I=   2, J=  31

 MAXIMUM STEPSIZE WHICH MEETS STABILITY CRITERION OF THE ADVECTION TERM
 (FOR PURE FINITE-DIFFERENCE OPTION, MIXELM=0) 
 = 0.1249    (WHEN MIN. R.F.=1)  AT K=   3, I=   2, J=  30
>>>>>>> Stashed changes


 TOTAL NUMBER OF POINT SOURCES/SINKS PRESENT IN THE FLOW MODEL =   240

 MAXIMUM STEPSIZE WHICH MEETS STABILITY CRITERION OF THE SINK & SOURCE TERM
 = 0.1000E+31(WHEN MIN. R.F.=1)  AT K=   0, I=   0, J=   0

 MAXIMUM STEPSIZE WHICH MEETS STABILITY CRITERION OF THE DISPERSION TERM
<<<<<<< Updated upstream
 = 0.6200E-02(WHEN MIN. R.F.=1)  AT K=   3, I=   2, J=  31
     1 CALLS TO GCG PACKAGE FOR TRANSPORT TIME STEP   5 IN FLOW TIME STEP  42 STRESS PERIOD   2
    16 TOTAL ITERATIONS
=======
 = 0.6705E-02(WHEN MIN. R.F.=1)  AT K=   3, I=   2, J=  30


     1 CALLS TO GCG PACKAGE FOR TRANSPORT TIME STEP   1 IN FLOW TIME STEP  36 STRESS PERIOD   2
    17 TOTAL ITERATIONS

 OUTPUT CONTROL FOR STRESS PERIOD    2   TIME STEP  36
    SAVE HEAD FOR ALL LAYERS
    SAVE BUDGET
0WARNING: NUMERICAL OSCILLATION ENCOUNTERED
 ONE OR MORE CELL CONCENTRATIONS LESS THAN CRHOREF
 SMALLEST DENSITY =  0.100E+04
 AT CELL (I,J,K) = (   3,  60,  27)

>>>>>>> Stashed changes
 
 SOLVING FOR HEAD 
 FLOW MODEL IS TRANSIENT
 FLOW MODEL CONTAINS CONSTANT-HEAD CELLS


 MAXIMUM STEPSIZE DURING WHICH ANY PARTICLE CANNOT MOVE MORE THAN ONE CELL
<<<<<<< Updated upstream
 = 0.1634    (WHEN MIN. R.F.=1)  AT K=   3, I=   2, J=  29

 MAXIMUM STEPSIZE WHICH MEETS STABILITY CRITERION OF THE ADVECTION TERM
 (FOR PURE FINITE-DIFFERENCE OPTION, MIXELM=0) 
 = 0.1133    (WHEN MIN. R.F.=1)  AT K=   3, I=   2, J=  28
=======
 = 0.1871    (WHEN MIN. R.F.=1)  AT K=   3, I=   2, J=  31

 MAXIMUM STEPSIZE WHICH MEETS STABILITY CRITERION OF THE ADVECTION TERM
 (FOR PURE FINITE-DIFFERENCE OPTION, MIXELM=0) 
 = 0.1249    (WHEN MIN. R.F.=1)  AT K=   3, I=   2, J=  30
>>>>>>> Stashed changes


 TOTAL NUMBER OF POINT SOURCES/SINKS PRESENT IN THE FLOW MODEL =   240

 MAXIMUM STEPSIZE WHICH MEETS STABILITY CRITERION OF THE SINK & SOURCE TERM
 = 0.1000E+31(WHEN MIN. R.F.=1)  AT K=   0, I=   0, J=   0

 MAXIMUM STEPSIZE WHICH MEETS STABILITY CRITERION OF THE DISPERSION TERM
<<<<<<< Updated upstream
 = 0.6200E-02(WHEN MIN. R.F.=1)  AT K=   3, I=   2, J=  31
     1 CALLS TO GCG PACKAGE FOR TRANSPORT TIME STEP   6 IN FLOW TIME STEP  42 STRESS PERIOD   2
    15 TOTAL ITERATIONS
=======
 = 0.6705E-02(WHEN MIN. R.F.=1)  AT K=   3, I=   2, J=  30
     1 CALLS TO GCG PACKAGE FOR TRANSPORT TIME STEP   2 IN FLOW TIME STEP  36 STRESS PERIOD   2
    17 TOTAL ITERATIONS
0WARNING: NUMERICAL OSCILLATION ENCOUNTERED
 ONE OR MORE CELL CONCENTRATIONS LESS THAN CRHOREF
 SMALLEST DENSITY =  0.100E+04
 AT CELL (I,J,K) = (   3,  60,  27)

>>>>>>> Stashed changes
 
 SOLVING FOR HEAD 
 FLOW MODEL IS TRANSIENT
 FLOW MODEL CONTAINS CONSTANT-HEAD CELLS


 MAXIMUM STEPSIZE DURING WHICH ANY PARTICLE CANNOT MOVE MORE THAN ONE CELL
<<<<<<< Updated upstream
 = 0.1634    (WHEN MIN. R.F.=1)  AT K=   3, I=   2, J=  29

 MAXIMUM STEPSIZE WHICH MEETS STABILITY CRITERION OF THE ADVECTION TERM
 (FOR PURE FINITE-DIFFERENCE OPTION, MIXELM=0) 
 = 0.1133    (WHEN MIN. R.F.=1)  AT K=   3, I=   2, J=  28
=======
 = 0.1871    (WHEN MIN. R.F.=1)  AT K=   3, I=   2, J=  31

 MAXIMUM STEPSIZE WHICH MEETS STABILITY CRITERION OF THE ADVECTION TERM
 (FOR PURE FINITE-DIFFERENCE OPTION, MIXELM=0) 
 = 0.1249    (WHEN MIN. R.F.=1)  AT K=   3, I=   2, J=  30
>>>>>>> Stashed changes


 TOTAL NUMBER OF POINT SOURCES/SINKS PRESENT IN THE FLOW MODEL =   240

 MAXIMUM STEPSIZE WHICH MEETS STABILITY CRITERION OF THE SINK & SOURCE TERM
 = 0.1000E+31(WHEN MIN. R.F.=1)  AT K=   0, I=   0, J=   0

 MAXIMUM STEPSIZE WHICH MEETS STABILITY CRITERION OF THE DISPERSION TERM
<<<<<<< Updated upstream
 = 0.6200E-02(WHEN MIN. R.F.=1)  AT K=   3, I=   2, J=  31
     1 CALLS TO GCG PACKAGE FOR TRANSPORT TIME STEP   7 IN FLOW TIME STEP  42 STRESS PERIOD   2
    16 TOTAL ITERATIONS
=======
 = 0.6705E-02(WHEN MIN. R.F.=1)  AT K=   3, I=   2, J=  30
     1 CALLS TO GCG PACKAGE FOR TRANSPORT TIME STEP   3 IN FLOW TIME STEP  36 STRESS PERIOD   2
    17 TOTAL ITERATIONS
0WARNING: NUMERICAL OSCILLATION ENCOUNTERED
 ONE OR MORE CELL CONCENTRATIONS LESS THAN CRHOREF
 SMALLEST DENSITY =  0.100E+04
 AT CELL (I,J,K) = (   3,  60,  27)

>>>>>>> Stashed changes
 
 SOLVING FOR HEAD 
 FLOW MODEL IS TRANSIENT
 FLOW MODEL CONTAINS CONSTANT-HEAD CELLS


 MAXIMUM STEPSIZE DURING WHICH ANY PARTICLE CANNOT MOVE MORE THAN ONE CELL
<<<<<<< Updated upstream
 = 0.1634    (WHEN MIN. R.F.=1)  AT K=   3, I=   2, J=  29

 MAXIMUM STEPSIZE WHICH MEETS STABILITY CRITERION OF THE ADVECTION TERM
 (FOR PURE FINITE-DIFFERENCE OPTION, MIXELM=0) 
 = 0.1133    (WHEN MIN. R.F.=1)  AT K=   3, I=   2, J=  28
=======
 = 0.1871    (WHEN MIN. R.F.=1)  AT K=   3, I=   2, J=  31

 MAXIMUM STEPSIZE WHICH MEETS STABILITY CRITERION OF THE ADVECTION TERM
 (FOR PURE FINITE-DIFFERENCE OPTION, MIXELM=0) 
 = 0.1249    (WHEN MIN. R.F.=1)  AT K=   3, I=   2, J=  30
>>>>>>> Stashed changes


 TOTAL NUMBER OF POINT SOURCES/SINKS PRESENT IN THE FLOW MODEL =   240

 MAXIMUM STEPSIZE WHICH MEETS STABILITY CRITERION OF THE SINK & SOURCE TERM
 = 0.1000E+31(WHEN MIN. R.F.=1)  AT K=   0, I=   0, J=   0

 MAXIMUM STEPSIZE WHICH MEETS STABILITY CRITERION OF THE DISPERSION TERM
<<<<<<< Updated upstream
 = 0.6200E-02(WHEN MIN. R.F.=1)  AT K=   3, I=   2, J=  31
     1 CALLS TO GCG PACKAGE FOR TRANSPORT TIME STEP   8 IN FLOW TIME STEP  42 STRESS PERIOD   2
    15 TOTAL ITERATIONS
=======
 = 0.6705E-02(WHEN MIN. R.F.=1)  AT K=   3, I=   2, J=  30
     1 CALLS TO GCG PACKAGE FOR TRANSPORT TIME STEP   4 IN FLOW TIME STEP  36 STRESS PERIOD   2
    17 TOTAL ITERATIONS
0WARNING: NUMERICAL OSCILLATION ENCOUNTERED
 ONE OR MORE CELL CONCENTRATIONS LESS THAN CRHOREF
 SMALLEST DENSITY =  0.100E+04
 AT CELL (I,J,K) = (   3,  60,  27)

>>>>>>> Stashed changes
 
 SOLVING FOR HEAD 
 FLOW MODEL IS TRANSIENT
 FLOW MODEL CONTAINS CONSTANT-HEAD CELLS


 MAXIMUM STEPSIZE DURING WHICH ANY PARTICLE CANNOT MOVE MORE THAN ONE CELL
<<<<<<< Updated upstream
 = 0.1634    (WHEN MIN. R.F.=1)  AT K=   3, I=   2, J=  29

 MAXIMUM STEPSIZE WHICH MEETS STABILITY CRITERION OF THE ADVECTION TERM
 (FOR PURE FINITE-DIFFERENCE OPTION, MIXELM=0) 
 = 0.1133    (WHEN MIN. R.F.=1)  AT K=   3, I=   2, J=  28
=======
 = 0.1871    (WHEN MIN. R.F.=1)  AT K=   3, I=   2, J=  31

 MAXIMUM STEPSIZE WHICH MEETS STABILITY CRITERION OF THE ADVECTION TERM
 (FOR PURE FINITE-DIFFERENCE OPTION, MIXELM=0) 
 = 0.1249    (WHEN MIN. R.F.=1)  AT K=   3, I=   2, J=  30
>>>>>>> Stashed changes


 TOTAL NUMBER OF POINT SOURCES/SINKS PRESENT IN THE FLOW MODEL =   240

 MAXIMUM STEPSIZE WHICH MEETS STABILITY CRITERION OF THE SINK & SOURCE TERM
 = 0.1000E+31(WHEN MIN. R.F.=1)  AT K=   0, I=   0, J=   0

 MAXIMUM STEPSIZE WHICH MEETS STABILITY CRITERION OF THE DISPERSION TERM
<<<<<<< Updated upstream
 = 0.6200E-02(WHEN MIN. R.F.=1)  AT K=   3, I=   2, J=  31
     1 CALLS TO GCG PACKAGE FOR TRANSPORT TIME STEP   9 IN FLOW TIME STEP  42 STRESS PERIOD   2
     7 TOTAL ITERATIONS
  MAXIMUM CONCENTRATION CHANGES FOR EACH ITERATION:
  MAX. CHANGE LAYER,ROW,COL MAX. CHANGE LAYER,ROW,COL MAX. CHANGE LAYER,ROW,COL MAX. CHANGE LAYER,ROW,COL MAX. CHANGE LAYER,ROW,COL
 ------------------------------------------------------------------------------------------------------------------------------------
   0.2093E-03 ( 13,  3, 53)  0.1400E-04 (  5,  2, 62)  0.2898E-05 (  6,  1, 55)  0.9290E-06 (  3,  3, 31)  0.4048E-06 (  3,  3, 30)
   0.1706E-06 (  3,  3, 31)  0.5553E-07 (  3,  3, 30)


                                          ================================================
                                                         FROM TIME =   43.000     TO    44.000    
=======
 = 0.6705E-02(WHEN MIN. R.F.=1)  AT K=   3, I=   2, J=  30
     1 CALLS TO GCG PACKAGE FOR TRANSPORT TIME STEP   5 IN FLOW TIME STEP  36 STRESS PERIOD   2
    17 TOTAL ITERATIONS
0WARNING: NUMERICAL OSCILLATION ENCOUNTERED
 ONE OR MORE CELL CONCENTRATIONS LESS THAN CRHOREF
 SMALLEST DENSITY =  0.100E+04
 AT CELL (I,J,K) = (   3,  60,  27)
>>>>>>> Stashed changes

 
 SOLVING FOR HEAD 
 FLOW MODEL IS TRANSIENT
 FLOW MODEL CONTAINS CONSTANT-HEAD CELLS


 MAXIMUM STEPSIZE DURING WHICH ANY PARTICLE CANNOT MOVE MORE THAN ONE CELL
<<<<<<< Updated upstream
 = 0.1634    (WHEN MIN. R.F.=1)  AT K=   3, I=   2, J=  29

 MAXIMUM STEPSIZE WHICH MEETS STABILITY CRITERION OF THE ADVECTION TERM
 (FOR PURE FINITE-DIFFERENCE OPTION, MIXELM=0) 
 = 0.1133    (WHEN MIN. R.F.=1)  AT K=   3, I=   2, J=  28
=======
 = 0.1871    (WHEN MIN. R.F.=1)  AT K=   3, I=   2, J=  31

 MAXIMUM STEPSIZE WHICH MEETS STABILITY CRITERION OF THE ADVECTION TERM
 (FOR PURE FINITE-DIFFERENCE OPTION, MIXELM=0) 
 = 0.1249    (WHEN MIN. R.F.=1)  AT K=   3, I=   2, J=  30
>>>>>>> Stashed changes


 TOTAL NUMBER OF POINT SOURCES/SINKS PRESENT IN THE FLOW MODEL =   240

 MAXIMUM STEPSIZE WHICH MEETS STABILITY CRITERION OF THE SINK & SOURCE TERM
 = 0.1000E+31(WHEN MIN. R.F.=1)  AT K=   0, I=   0, J=   0

 MAXIMUM STEPSIZE WHICH MEETS STABILITY CRITERION OF THE DISPERSION TERM
<<<<<<< Updated upstream
 = 0.6200E-02(WHEN MIN. R.F.=1)  AT K=   3, I=   2, J=  31


     1 CALLS TO GCG PACKAGE FOR TRANSPORT TIME STEP   1 IN FLOW TIME STEP  43 STRESS PERIOD   2
    15 TOTAL ITERATIONS

 NO OUTPUT CONTROL FOR STRESS PERIOD    2   TIME STEP  43
=======
 = 0.6705E-02(WHEN MIN. R.F.=1)  AT K=   3, I=   2, J=  30
     1 CALLS TO GCG PACKAGE FOR TRANSPORT TIME STEP   6 IN FLOW TIME STEP  36 STRESS PERIOD   2
    17 TOTAL ITERATIONS
0WARNING: NUMERICAL OSCILLATION ENCOUNTERED
 ONE OR MORE CELL CONCENTRATIONS LESS THAN CRHOREF
 SMALLEST DENSITY =  0.100E+04
 AT CELL (I,J,K) = (   3,  60,  27)

>>>>>>> Stashed changes
 
 SOLVING FOR HEAD 
 FLOW MODEL IS TRANSIENT
 FLOW MODEL CONTAINS CONSTANT-HEAD CELLS


 MAXIMUM STEPSIZE DURING WHICH ANY PARTICLE CANNOT MOVE MORE THAN ONE CELL
<<<<<<< Updated upstream
 = 0.1634    (WHEN MIN. R.F.=1)  AT K=   3, I=   2, J=  29

 MAXIMUM STEPSIZE WHICH MEETS STABILITY CRITERION OF THE ADVECTION TERM
 (FOR PURE FINITE-DIFFERENCE OPTION, MIXELM=0) 
 = 0.1133    (WHEN MIN. R.F.=1)  AT K=   3, I=   2, J=  28
=======
 = 0.1871    (WHEN MIN. R.F.=1)  AT K=   3, I=   2, J=  31

 MAXIMUM STEPSIZE WHICH MEETS STABILITY CRITERION OF THE ADVECTION TERM
 (FOR PURE FINITE-DIFFERENCE OPTION, MIXELM=0) 
 = 0.1249    (WHEN MIN. R.F.=1)  AT K=   3, I=   2, J=  30
>>>>>>> Stashed changes


 TOTAL NUMBER OF POINT SOURCES/SINKS PRESENT IN THE FLOW MODEL =   240

 MAXIMUM STEPSIZE WHICH MEETS STABILITY CRITERION OF THE SINK & SOURCE TERM
 = 0.1000E+31(WHEN MIN. R.F.=1)  AT K=   0, I=   0, J=   0

 MAXIMUM STEPSIZE WHICH MEETS STABILITY CRITERION OF THE DISPERSION TERM
<<<<<<< Updated upstream
 = 0.6200E-02(WHEN MIN. R.F.=1)  AT K=   3, I=   2, J=  31
     1 CALLS TO GCG PACKAGE FOR TRANSPORT TIME STEP   2 IN FLOW TIME STEP  43 STRESS PERIOD   2
    16 TOTAL ITERATIONS
=======
 = 0.6705E-02(WHEN MIN. R.F.=1)  AT K=   3, I=   2, J=  30
     1 CALLS TO GCG PACKAGE FOR TRANSPORT TIME STEP   7 IN FLOW TIME STEP  36 STRESS PERIOD   2
    17 TOTAL ITERATIONS
0WARNING: NUMERICAL OSCILLATION ENCOUNTERED
 ONE OR MORE CELL CONCENTRATIONS LESS THAN CRHOREF
 SMALLEST DENSITY =  0.100E+04
 AT CELL (I,J,K) = (   3,  60,  27)

>>>>>>> Stashed changes
 
 SOLVING FOR HEAD 
 FLOW MODEL IS TRANSIENT
 FLOW MODEL CONTAINS CONSTANT-HEAD CELLS


 MAXIMUM STEPSIZE DURING WHICH ANY PARTICLE CANNOT MOVE MORE THAN ONE CELL
<<<<<<< Updated upstream
 = 0.1634    (WHEN MIN. R.F.=1)  AT K=   3, I=   2, J=  29

 MAXIMUM STEPSIZE WHICH MEETS STABILITY CRITERION OF THE ADVECTION TERM
 (FOR PURE FINITE-DIFFERENCE OPTION, MIXELM=0) 
 = 0.1133    (WHEN MIN. R.F.=1)  AT K=   3, I=   2, J=  28
=======
 = 0.1871    (WHEN MIN. R.F.=1)  AT K=   3, I=   2, J=  31

 MAXIMUM STEPSIZE WHICH MEETS STABILITY CRITERION OF THE ADVECTION TERM
 (FOR PURE FINITE-DIFFERENCE OPTION, MIXELM=0) 
 = 0.1249    (WHEN MIN. R.F.=1)  AT K=   3, I=   2, J=  30
>>>>>>> Stashed changes


 TOTAL NUMBER OF POINT SOURCES/SINKS PRESENT IN THE FLOW MODEL =   240

 MAXIMUM STEPSIZE WHICH MEETS STABILITY CRITERION OF THE SINK & SOURCE TERM
 = 0.1000E+31(WHEN MIN. R.F.=1)  AT K=   0, I=   0, J=   0

 MAXIMUM STEPSIZE WHICH MEETS STABILITY CRITERION OF THE DISPERSION TERM
<<<<<<< Updated upstream
 = 0.6200E-02(WHEN MIN. R.F.=1)  AT K=   3, I=   2, J=  31
     1 CALLS TO GCG PACKAGE FOR TRANSPORT TIME STEP   3 IN FLOW TIME STEP  43 STRESS PERIOD   2
    15 TOTAL ITERATIONS
=======
 = 0.6705E-02(WHEN MIN. R.F.=1)  AT K=   3, I=   2, J=  30
     1 CALLS TO GCG PACKAGE FOR TRANSPORT TIME STEP   8 IN FLOW TIME STEP  36 STRESS PERIOD   2
     6 TOTAL ITERATIONS
  MAXIMUM CONCENTRATION CHANGES FOR EACH ITERATION:
  MAX. CHANGE LAYER,ROW,COL MAX. CHANGE LAYER,ROW,COL MAX. CHANGE LAYER,ROW,COL MAX. CHANGE LAYER,ROW,COL MAX. CHANGE LAYER,ROW,COL
 ------------------------------------------------------------------------------------------------------------------------------------
   0.2085E-03 ( 13,  2, 55)  0.1209E-04 (  6,  1, 52)  0.2881E-05 (  4,  2, 44)  0.1054E-05 (  3,  2, 37)  0.2663E-06 (  4,  2, 37)
   0.9287E-07 (  3,  1, 31)
 UBDSV1 SAVING "         STORAGE" ON UNIT  53 AT TIME STEP 36, STRESS PERIOD   2
 UBDSV2 SAVING "   CONSTANT HEAD" ON UNIT  53 AT TIME STEP 36, STRESS PERIOD   2
 UBDSV1 SAVING "FLOW RIGHT FACE " ON UNIT  53 AT TIME STEP 36, STRESS PERIOD   2
 UBDSV1 SAVING "FLOW FRONT FACE " ON UNIT  53 AT TIME STEP 36, STRESS PERIOD   2
 UBDSV1 SAVING "FLOW LOWER FACE " ON UNIT  53 AT TIME STEP 36, STRESS PERIOD   2
 UBDSV1 SAVING "            DCDT" ON UNIT  53 AT TIME STEP 36, STRESS PERIOD   2
0WARNING: NUMERICAL OSCILLATION ENCOUNTERED
 ONE OR MORE CELL CONCENTRATIONS LESS THAN CRHOREF
 SMALLEST DENSITY =  0.100E+04
 AT CELL (I,J,K) = (   3,  60,  27)


 HEAD WILL BE SAVED ON UNIT   51 AT END OF TIME STEP  36, STRESS PERIOD    2


                                          ================================================
                                                         FROM TIME =   37.000     TO    38.000    

>>>>>>> Stashed changes
 
 SOLVING FOR HEAD 
 FLOW MODEL IS TRANSIENT
 FLOW MODEL CONTAINS CONSTANT-HEAD CELLS


 MAXIMUM STEPSIZE DURING WHICH ANY PARTICLE CANNOT MOVE MORE THAN ONE CELL
<<<<<<< Updated upstream
 = 0.1634    (WHEN MIN. R.F.=1)  AT K=   3, I=   2, J=  29

 MAXIMUM STEPSIZE WHICH MEETS STABILITY CRITERION OF THE ADVECTION TERM
 (FOR PURE FINITE-DIFFERENCE OPTION, MIXELM=0) 
 = 0.1133    (WHEN MIN. R.F.=1)  AT K=   3, I=   2, J=  28
=======
 = 0.1871    (WHEN MIN. R.F.=1)  AT K=   3, I=   2, J=  31

 MAXIMUM STEPSIZE WHICH MEETS STABILITY CRITERION OF THE ADVECTION TERM
 (FOR PURE FINITE-DIFFERENCE OPTION, MIXELM=0) 
 = 0.1249    (WHEN MIN. R.F.=1)  AT K=   3, I=   2, J=  30
>>>>>>> Stashed changes


 TOTAL NUMBER OF POINT SOURCES/SINKS PRESENT IN THE FLOW MODEL =   240

 MAXIMUM STEPSIZE WHICH MEETS STABILITY CRITERION OF THE SINK & SOURCE TERM
 = 0.1000E+31(WHEN MIN. R.F.=1)  AT K=   0, I=   0, J=   0

 MAXIMUM STEPSIZE WHICH MEETS STABILITY CRITERION OF THE DISPERSION TERM
<<<<<<< Updated upstream
 = 0.6200E-02(WHEN MIN. R.F.=1)  AT K=   3, I=   2, J=  31
     1 CALLS TO GCG PACKAGE FOR TRANSPORT TIME STEP   4 IN FLOW TIME STEP  43 STRESS PERIOD   2
    16 TOTAL ITERATIONS
=======
 = 0.6705E-02(WHEN MIN. R.F.=1)  AT K=   3, I=   2, J=  30


     1 CALLS TO GCG PACKAGE FOR TRANSPORT TIME STEP   1 IN FLOW TIME STEP  37 STRESS PERIOD   2
    17 TOTAL ITERATIONS

 OUTPUT CONTROL FOR STRESS PERIOD    2   TIME STEP  37
    SAVE HEAD FOR ALL LAYERS
    SAVE BUDGET
0WARNING: NUMERICAL OSCILLATION ENCOUNTERED
 ONE OR MORE CELL CONCENTRATIONS LESS THAN CRHOREF
 SMALLEST DENSITY =  0.100E+04
 AT CELL (I,J,K) = (   3,  60,  27)

>>>>>>> Stashed changes
 
 SOLVING FOR HEAD 
 FLOW MODEL IS TRANSIENT
 FLOW MODEL CONTAINS CONSTANT-HEAD CELLS


 MAXIMUM STEPSIZE DURING WHICH ANY PARTICLE CANNOT MOVE MORE THAN ONE CELL
<<<<<<< Updated upstream
 = 0.1634    (WHEN MIN. R.F.=1)  AT K=   3, I=   2, J=  29

 MAXIMUM STEPSIZE WHICH MEETS STABILITY CRITERION OF THE ADVECTION TERM
 (FOR PURE FINITE-DIFFERENCE OPTION, MIXELM=0) 
 = 0.1133    (WHEN MIN. R.F.=1)  AT K=   3, I=   2, J=  28
=======
 = 0.1871    (WHEN MIN. R.F.=1)  AT K=   3, I=   2, J=  31

 MAXIMUM STEPSIZE WHICH MEETS STABILITY CRITERION OF THE ADVECTION TERM
 (FOR PURE FINITE-DIFFERENCE OPTION, MIXELM=0) 
 = 0.1249    (WHEN MIN. R.F.=1)  AT K=   3, I=   2, J=  30
>>>>>>> Stashed changes


 TOTAL NUMBER OF POINT SOURCES/SINKS PRESENT IN THE FLOW MODEL =   240

 MAXIMUM STEPSIZE WHICH MEETS STABILITY CRITERION OF THE SINK & SOURCE TERM
 = 0.1000E+31(WHEN MIN. R.F.=1)  AT K=   0, I=   0, J=   0

 MAXIMUM STEPSIZE WHICH MEETS STABILITY CRITERION OF THE DISPERSION TERM
<<<<<<< Updated upstream
 = 0.6200E-02(WHEN MIN. R.F.=1)  AT K=   3, I=   2, J=  31
     1 CALLS TO GCG PACKAGE FOR TRANSPORT TIME STEP   5 IN FLOW TIME STEP  43 STRESS PERIOD   2
    15 TOTAL ITERATIONS
=======
 = 0.6705E-02(WHEN MIN. R.F.=1)  AT K=   3, I=   2, J=  30
     1 CALLS TO GCG PACKAGE FOR TRANSPORT TIME STEP   2 IN FLOW TIME STEP  37 STRESS PERIOD   2
    17 TOTAL ITERATIONS
0WARNING: NUMERICAL OSCILLATION ENCOUNTERED
 ONE OR MORE CELL CONCENTRATIONS LESS THAN CRHOREF
 SMALLEST DENSITY =  0.100E+04
 AT CELL (I,J,K) = (   3,  60,  27)

>>>>>>> Stashed changes
 
 SOLVING FOR HEAD 
 FLOW MODEL IS TRANSIENT
 FLOW MODEL CONTAINS CONSTANT-HEAD CELLS


 MAXIMUM STEPSIZE DURING WHICH ANY PARTICLE CANNOT MOVE MORE THAN ONE CELL
<<<<<<< Updated upstream
 = 0.1634    (WHEN MIN. R.F.=1)  AT K=   3, I=   2, J=  29

 MAXIMUM STEPSIZE WHICH MEETS STABILITY CRITERION OF THE ADVECTION TERM
 (FOR PURE FINITE-DIFFERENCE OPTION, MIXELM=0) 
 = 0.1133    (WHEN MIN. R.F.=1)  AT K=   3, I=   2, J=  28
=======
 = 0.1871    (WHEN MIN. R.F.=1)  AT K=   3, I=   2, J=  31

 MAXIMUM STEPSIZE WHICH MEETS STABILITY CRITERION OF THE ADVECTION TERM
 (FOR PURE FINITE-DIFFERENCE OPTION, MIXELM=0) 
 = 0.1249    (WHEN MIN. R.F.=1)  AT K=   3, I=   2, J=  30
>>>>>>> Stashed changes


 TOTAL NUMBER OF POINT SOURCES/SINKS PRESENT IN THE FLOW MODEL =   240

 MAXIMUM STEPSIZE WHICH MEETS STABILITY CRITERION OF THE SINK & SOURCE TERM
 = 0.1000E+31(WHEN MIN. R.F.=1)  AT K=   0, I=   0, J=   0

 MAXIMUM STEPSIZE WHICH MEETS STABILITY CRITERION OF THE DISPERSION TERM
<<<<<<< Updated upstream
 = 0.6200E-02(WHEN MIN. R.F.=1)  AT K=   3, I=   2, J=  31
     1 CALLS TO GCG PACKAGE FOR TRANSPORT TIME STEP   6 IN FLOW TIME STEP  43 STRESS PERIOD   2
    16 TOTAL ITERATIONS
=======
 = 0.6704E-02(WHEN MIN. R.F.=1)  AT K=   3, I=   2, J=  30
     1 CALLS TO GCG PACKAGE FOR TRANSPORT TIME STEP   3 IN FLOW TIME STEP  37 STRESS PERIOD   2
    17 TOTAL ITERATIONS
0WARNING: NUMERICAL OSCILLATION ENCOUNTERED
 ONE OR MORE CELL CONCENTRATIONS LESS THAN CRHOREF
 SMALLEST DENSITY =  0.100E+04
 AT CELL (I,J,K) = (   3,  60,  27)

>>>>>>> Stashed changes
 
 SOLVING FOR HEAD 
 FLOW MODEL IS TRANSIENT
 FLOW MODEL CONTAINS CONSTANT-HEAD CELLS


 MAXIMUM STEPSIZE DURING WHICH ANY PARTICLE CANNOT MOVE MORE THAN ONE CELL
<<<<<<< Updated upstream
 = 0.1634    (WHEN MIN. R.F.=1)  AT K=   3, I=   2, J=  29

 MAXIMUM STEPSIZE WHICH MEETS STABILITY CRITERION OF THE ADVECTION TERM
 (FOR PURE FINITE-DIFFERENCE OPTION, MIXELM=0) 
 = 0.1133    (WHEN MIN. R.F.=1)  AT K=   3, I=   2, J=  28
=======
 = 0.1871    (WHEN MIN. R.F.=1)  AT K=   3, I=   2, J=  31

 MAXIMUM STEPSIZE WHICH MEETS STABILITY CRITERION OF THE ADVECTION TERM
 (FOR PURE FINITE-DIFFERENCE OPTION, MIXELM=0) 
 = 0.1249    (WHEN MIN. R.F.=1)  AT K=   3, I=   2, J=  30
>>>>>>> Stashed changes


 TOTAL NUMBER OF POINT SOURCES/SINKS PRESENT IN THE FLOW MODEL =   240

 MAXIMUM STEPSIZE WHICH MEETS STABILITY CRITERION OF THE SINK & SOURCE TERM
 = 0.1000E+31(WHEN MIN. R.F.=1)  AT K=   0, I=   0, J=   0

 MAXIMUM STEPSIZE WHICH MEETS STABILITY CRITERION OF THE DISPERSION TERM
<<<<<<< Updated upstream
 = 0.6200E-02(WHEN MIN. R.F.=1)  AT K=   3, I=   2, J=  31
     1 CALLS TO GCG PACKAGE FOR TRANSPORT TIME STEP   7 IN FLOW TIME STEP  43 STRESS PERIOD   2
    15 TOTAL ITERATIONS
=======
 = 0.6704E-02(WHEN MIN. R.F.=1)  AT K=   3, I=   2, J=  30
     1 CALLS TO GCG PACKAGE FOR TRANSPORT TIME STEP   4 IN FLOW TIME STEP  37 STRESS PERIOD   2
    17 TOTAL ITERATIONS
0WARNING: NUMERICAL OSCILLATION ENCOUNTERED
 ONE OR MORE CELL CONCENTRATIONS LESS THAN CRHOREF
 SMALLEST DENSITY =  0.100E+04
 AT CELL (I,J,K) = (   3,  60,  27)

>>>>>>> Stashed changes
 
 SOLVING FOR HEAD 
 FLOW MODEL IS TRANSIENT
 FLOW MODEL CONTAINS CONSTANT-HEAD CELLS


 MAXIMUM STEPSIZE DURING WHICH ANY PARTICLE CANNOT MOVE MORE THAN ONE CELL
<<<<<<< Updated upstream
 = 0.1634    (WHEN MIN. R.F.=1)  AT K=   3, I=   2, J=  29

 MAXIMUM STEPSIZE WHICH MEETS STABILITY CRITERION OF THE ADVECTION TERM
 (FOR PURE FINITE-DIFFERENCE OPTION, MIXELM=0) 
 = 0.1133    (WHEN MIN. R.F.=1)  AT K=   3, I=   2, J=  28
=======
 = 0.1871    (WHEN MIN. R.F.=1)  AT K=   3, I=   2, J=  31

 MAXIMUM STEPSIZE WHICH MEETS STABILITY CRITERION OF THE ADVECTION TERM
 (FOR PURE FINITE-DIFFERENCE OPTION, MIXELM=0) 
 = 0.1249    (WHEN MIN. R.F.=1)  AT K=   3, I=   2, J=  30
>>>>>>> Stashed changes


 TOTAL NUMBER OF POINT SOURCES/SINKS PRESENT IN THE FLOW MODEL =   240

 MAXIMUM STEPSIZE WHICH MEETS STABILITY CRITERION OF THE SINK & SOURCE TERM
 = 0.1000E+31(WHEN MIN. R.F.=1)  AT K=   0, I=   0, J=   0

 MAXIMUM STEPSIZE WHICH MEETS STABILITY CRITERION OF THE DISPERSION TERM
<<<<<<< Updated upstream
 = 0.6200E-02(WHEN MIN. R.F.=1)  AT K=   3, I=   2, J=  31
     1 CALLS TO GCG PACKAGE FOR TRANSPORT TIME STEP   8 IN FLOW TIME STEP  43 STRESS PERIOD   2
    16 TOTAL ITERATIONS
=======
 = 0.6704E-02(WHEN MIN. R.F.=1)  AT K=   3, I=   2, J=  30
     1 CALLS TO GCG PACKAGE FOR TRANSPORT TIME STEP   5 IN FLOW TIME STEP  37 STRESS PERIOD   2
    17 TOTAL ITERATIONS
0WARNING: NUMERICAL OSCILLATION ENCOUNTERED
 ONE OR MORE CELL CONCENTRATIONS LESS THAN CRHOREF
 SMALLEST DENSITY =  0.100E+04
 AT CELL (I,J,K) = (   3,  60,  27)

>>>>>>> Stashed changes
 
 SOLVING FOR HEAD 
 FLOW MODEL IS TRANSIENT
 FLOW MODEL CONTAINS CONSTANT-HEAD CELLS


 MAXIMUM STEPSIZE DURING WHICH ANY PARTICLE CANNOT MOVE MORE THAN ONE CELL
<<<<<<< Updated upstream
 = 0.1634    (WHEN MIN. R.F.=1)  AT K=   3, I=   2, J=  29

 MAXIMUM STEPSIZE WHICH MEETS STABILITY CRITERION OF THE ADVECTION TERM
 (FOR PURE FINITE-DIFFERENCE OPTION, MIXELM=0) 
 = 0.1133    (WHEN MIN. R.F.=1)  AT K=   3, I=   2, J=  28
=======
 = 0.1871    (WHEN MIN. R.F.=1)  AT K=   3, I=   2, J=  31

 MAXIMUM STEPSIZE WHICH MEETS STABILITY CRITERION OF THE ADVECTION TERM
 (FOR PURE FINITE-DIFFERENCE OPTION, MIXELM=0) 
 = 0.1249    (WHEN MIN. R.F.=1)  AT K=   3, I=   2, J=  30
>>>>>>> Stashed changes


 TOTAL NUMBER OF POINT SOURCES/SINKS PRESENT IN THE FLOW MODEL =   240

 MAXIMUM STEPSIZE WHICH MEETS STABILITY CRITERION OF THE SINK & SOURCE TERM
 = 0.1000E+31(WHEN MIN. R.F.=1)  AT K=   0, I=   0, J=   0

 MAXIMUM STEPSIZE WHICH MEETS STABILITY CRITERION OF THE DISPERSION TERM
<<<<<<< Updated upstream
 = 0.6200E-02(WHEN MIN. R.F.=1)  AT K=   3, I=   2, J=  31
     1 CALLS TO GCG PACKAGE FOR TRANSPORT TIME STEP   9 IN FLOW TIME STEP  43 STRESS PERIOD   2
     7 TOTAL ITERATIONS
  MAXIMUM CONCENTRATION CHANGES FOR EACH ITERATION:
  MAX. CHANGE LAYER,ROW,COL MAX. CHANGE LAYER,ROW,COL MAX. CHANGE LAYER,ROW,COL MAX. CHANGE LAYER,ROW,COL MAX. CHANGE LAYER,ROW,COL
 ------------------------------------------------------------------------------------------------------------------------------------
   0.2056E-03 ( 13,  3, 53)  0.1347E-04 (  5,  2, 62)  0.2788E-05 (  6,  1, 55)  0.9102E-06 (  3,  3, 31)  0.3995E-06 (  3,  3, 30)
   0.1816E-06 (  3,  3, 31)  0.5732E-07 (  3,  3, 30)


                                          ================================================
                                                         FROM TIME =   44.000     TO    45.000    
=======
 = 0.6704E-02(WHEN MIN. R.F.=1)  AT K=   3, I=   2, J=  30
     1 CALLS TO GCG PACKAGE FOR TRANSPORT TIME STEP   6 IN FLOW TIME STEP  37 STRESS PERIOD   2
    17 TOTAL ITERATIONS
0WARNING: NUMERICAL OSCILLATION ENCOUNTERED
 ONE OR MORE CELL CONCENTRATIONS LESS THAN CRHOREF
 SMALLEST DENSITY =  0.100E+04
 AT CELL (I,J,K) = (   3,  60,  27)
>>>>>>> Stashed changes

 
 SOLVING FOR HEAD 
 FLOW MODEL IS TRANSIENT
 FLOW MODEL CONTAINS CONSTANT-HEAD CELLS


 MAXIMUM STEPSIZE DURING WHICH ANY PARTICLE CANNOT MOVE MORE THAN ONE CELL
<<<<<<< Updated upstream
 = 0.1634    (WHEN MIN. R.F.=1)  AT K=   3, I=   2, J=  29

 MAXIMUM STEPSIZE WHICH MEETS STABILITY CRITERION OF THE ADVECTION TERM
 (FOR PURE FINITE-DIFFERENCE OPTION, MIXELM=0) 
 = 0.1133    (WHEN MIN. R.F.=1)  AT K=   3, I=   2, J=  28
=======
 = 0.1871    (WHEN MIN. R.F.=1)  AT K=   3, I=   2, J=  31

 MAXIMUM STEPSIZE WHICH MEETS STABILITY CRITERION OF THE ADVECTION TERM
 (FOR PURE FINITE-DIFFERENCE OPTION, MIXELM=0) 
 = 0.1249    (WHEN MIN. R.F.=1)  AT K=   3, I=   2, J=  30
>>>>>>> Stashed changes


 TOTAL NUMBER OF POINT SOURCES/SINKS PRESENT IN THE FLOW MODEL =   240

 MAXIMUM STEPSIZE WHICH MEETS STABILITY CRITERION OF THE SINK & SOURCE TERM
 = 0.1000E+31(WHEN MIN. R.F.=1)  AT K=   0, I=   0, J=   0

 MAXIMUM STEPSIZE WHICH MEETS STABILITY CRITERION OF THE DISPERSION TERM
<<<<<<< Updated upstream
 = 0.6200E-02(WHEN MIN. R.F.=1)  AT K=   3, I=   2, J=  31


     1 CALLS TO GCG PACKAGE FOR TRANSPORT TIME STEP   1 IN FLOW TIME STEP  44 STRESS PERIOD   2
    15 TOTAL ITERATIONS

 NO OUTPUT CONTROL FOR STRESS PERIOD    2   TIME STEP  44
=======
 = 0.6704E-02(WHEN MIN. R.F.=1)  AT K=   3, I=   2, J=  30
     1 CALLS TO GCG PACKAGE FOR TRANSPORT TIME STEP   7 IN FLOW TIME STEP  37 STRESS PERIOD   2
    17 TOTAL ITERATIONS
0WARNING: NUMERICAL OSCILLATION ENCOUNTERED
 ONE OR MORE CELL CONCENTRATIONS LESS THAN CRHOREF
 SMALLEST DENSITY =  0.100E+04
 AT CELL (I,J,K) = (   3,  60,  27)

>>>>>>> Stashed changes
 
 SOLVING FOR HEAD 
 FLOW MODEL IS TRANSIENT
 FLOW MODEL CONTAINS CONSTANT-HEAD CELLS


 MAXIMUM STEPSIZE DURING WHICH ANY PARTICLE CANNOT MOVE MORE THAN ONE CELL
<<<<<<< Updated upstream
 = 0.1634    (WHEN MIN. R.F.=1)  AT K=   3, I=   2, J=  29

 MAXIMUM STEPSIZE WHICH MEETS STABILITY CRITERION OF THE ADVECTION TERM
 (FOR PURE FINITE-DIFFERENCE OPTION, MIXELM=0) 
 = 0.1133    (WHEN MIN. R.F.=1)  AT K=   3, I=   2, J=  28
=======
 = 0.1871    (WHEN MIN. R.F.=1)  AT K=   3, I=   2, J=  31

 MAXIMUM STEPSIZE WHICH MEETS STABILITY CRITERION OF THE ADVECTION TERM
 (FOR PURE FINITE-DIFFERENCE OPTION, MIXELM=0) 
 = 0.1249    (WHEN MIN. R.F.=1)  AT K=   3, I=   2, J=  30
>>>>>>> Stashed changes


 TOTAL NUMBER OF POINT SOURCES/SINKS PRESENT IN THE FLOW MODEL =   240

 MAXIMUM STEPSIZE WHICH MEETS STABILITY CRITERION OF THE SINK & SOURCE TERM
 = 0.1000E+31(WHEN MIN. R.F.=1)  AT K=   0, I=   0, J=   0

 MAXIMUM STEPSIZE WHICH MEETS STABILITY CRITERION OF THE DISPERSION TERM
<<<<<<< Updated upstream
 = 0.6200E-02(WHEN MIN. R.F.=1)  AT K=   3, I=   2, J=  31
     1 CALLS TO GCG PACKAGE FOR TRANSPORT TIME STEP   2 IN FLOW TIME STEP  44 STRESS PERIOD   2
    16 TOTAL ITERATIONS
=======
 = 0.6704E-02(WHEN MIN. R.F.=1)  AT K=   3, I=   2, J=  30
     1 CALLS TO GCG PACKAGE FOR TRANSPORT TIME STEP   8 IN FLOW TIME STEP  37 STRESS PERIOD   2
     6 TOTAL ITERATIONS
  MAXIMUM CONCENTRATION CHANGES FOR EACH ITERATION:
  MAX. CHANGE LAYER,ROW,COL MAX. CHANGE LAYER,ROW,COL MAX. CHANGE LAYER,ROW,COL MAX. CHANGE LAYER,ROW,COL MAX. CHANGE LAYER,ROW,COL
 ------------------------------------------------------------------------------------------------------------------------------------
   0.2015E-03 ( 13,  2, 56)  0.1149E-04 (  6,  1, 52)  0.2731E-05 (  4,  2, 44)  0.9996E-06 (  3,  2, 37)  0.2537E-06 (  4,  2, 37)
   0.8834E-07 (  3,  1, 31)
 UBDSV1 SAVING "         STORAGE" ON UNIT  53 AT TIME STEP 37, STRESS PERIOD   2
 UBDSV2 SAVING "   CONSTANT HEAD" ON UNIT  53 AT TIME STEP 37, STRESS PERIOD   2
 UBDSV1 SAVING "FLOW RIGHT FACE " ON UNIT  53 AT TIME STEP 37, STRESS PERIOD   2
 UBDSV1 SAVING "FLOW FRONT FACE " ON UNIT  53 AT TIME STEP 37, STRESS PERIOD   2
 UBDSV1 SAVING "FLOW LOWER FACE " ON UNIT  53 AT TIME STEP 37, STRESS PERIOD   2
 UBDSV1 SAVING "            DCDT" ON UNIT  53 AT TIME STEP 37, STRESS PERIOD   2
0WARNING: NUMERICAL OSCILLATION ENCOUNTERED
 ONE OR MORE CELL CONCENTRATIONS LESS THAN CRHOREF
 SMALLEST DENSITY =  0.100E+04
 AT CELL (I,J,K) = (   3,  60,  27)


 HEAD WILL BE SAVED ON UNIT   51 AT END OF TIME STEP  37, STRESS PERIOD    2


                                          ================================================
                                                         FROM TIME =   38.000     TO    39.000    

>>>>>>> Stashed changes
 
 SOLVING FOR HEAD 
 FLOW MODEL IS TRANSIENT
 FLOW MODEL CONTAINS CONSTANT-HEAD CELLS


 MAXIMUM STEPSIZE DURING WHICH ANY PARTICLE CANNOT MOVE MORE THAN ONE CELL
<<<<<<< Updated upstream
 = 0.1634    (WHEN MIN. R.F.=1)  AT K=   3, I=   2, J=  29

 MAXIMUM STEPSIZE WHICH MEETS STABILITY CRITERION OF THE ADVECTION TERM
 (FOR PURE FINITE-DIFFERENCE OPTION, MIXELM=0) 
 = 0.1133    (WHEN MIN. R.F.=1)  AT K=   3, I=   2, J=  28
=======
 = 0.1871    (WHEN MIN. R.F.=1)  AT K=   3, I=   2, J=  31

 MAXIMUM STEPSIZE WHICH MEETS STABILITY CRITERION OF THE ADVECTION TERM
 (FOR PURE FINITE-DIFFERENCE OPTION, MIXELM=0) 
 = 0.1249    (WHEN MIN. R.F.=1)  AT K=   3, I=   2, J=  30
>>>>>>> Stashed changes


 TOTAL NUMBER OF POINT SOURCES/SINKS PRESENT IN THE FLOW MODEL =   240

 MAXIMUM STEPSIZE WHICH MEETS STABILITY CRITERION OF THE SINK & SOURCE TERM
 = 0.1000E+31(WHEN MIN. R.F.=1)  AT K=   0, I=   0, J=   0

 MAXIMUM STEPSIZE WHICH MEETS STABILITY CRITERION OF THE DISPERSION TERM
<<<<<<< Updated upstream
 = 0.6200E-02(WHEN MIN. R.F.=1)  AT K=   3, I=   2, J=  31
     1 CALLS TO GCG PACKAGE FOR TRANSPORT TIME STEP   3 IN FLOW TIME STEP  44 STRESS PERIOD   2
    15 TOTAL ITERATIONS
=======
 = 0.6704E-02(WHEN MIN. R.F.=1)  AT K=   3, I=   2, J=  30


     1 CALLS TO GCG PACKAGE FOR TRANSPORT TIME STEP   1 IN FLOW TIME STEP  38 STRESS PERIOD   2
    17 TOTAL ITERATIONS

 OUTPUT CONTROL FOR STRESS PERIOD    2   TIME STEP  38
    SAVE HEAD FOR ALL LAYERS
    SAVE BUDGET
0WARNING: NUMERICAL OSCILLATION ENCOUNTERED
 ONE OR MORE CELL CONCENTRATIONS LESS THAN CRHOREF
 SMALLEST DENSITY =  0.100E+04
 AT CELL (I,J,K) = (   3,  60,  27)

>>>>>>> Stashed changes
 
 SOLVING FOR HEAD 
 FLOW MODEL IS TRANSIENT
 FLOW MODEL CONTAINS CONSTANT-HEAD CELLS


 MAXIMUM STEPSIZE DURING WHICH ANY PARTICLE CANNOT MOVE MORE THAN ONE CELL
<<<<<<< Updated upstream
 = 0.1634    (WHEN MIN. R.F.=1)  AT K=   3, I=   2, J=  29

 MAXIMUM STEPSIZE WHICH MEETS STABILITY CRITERION OF THE ADVECTION TERM
 (FOR PURE FINITE-DIFFERENCE OPTION, MIXELM=0) 
 = 0.1133    (WHEN MIN. R.F.=1)  AT K=   3, I=   2, J=  28
=======
 = 0.1871    (WHEN MIN. R.F.=1)  AT K=   3, I=   2, J=  31

 MAXIMUM STEPSIZE WHICH MEETS STABILITY CRITERION OF THE ADVECTION TERM
 (FOR PURE FINITE-DIFFERENCE OPTION, MIXELM=0) 
 = 0.1249    (WHEN MIN. R.F.=1)  AT K=   3, I=   2, J=  30
>>>>>>> Stashed changes


 TOTAL NUMBER OF POINT SOURCES/SINKS PRESENT IN THE FLOW MODEL =   240

 MAXIMUM STEPSIZE WHICH MEETS STABILITY CRITERION OF THE SINK & SOURCE TERM
 = 0.1000E+31(WHEN MIN. R.F.=1)  AT K=   0, I=   0, J=   0

 MAXIMUM STEPSIZE WHICH MEETS STABILITY CRITERION OF THE DISPERSION TERM
<<<<<<< Updated upstream
 = 0.6200E-02(WHEN MIN. R.F.=1)  AT K=   3, I=   2, J=  31
     1 CALLS TO GCG PACKAGE FOR TRANSPORT TIME STEP   4 IN FLOW TIME STEP  44 STRESS PERIOD   2
    16 TOTAL ITERATIONS
=======
 = 0.6704E-02(WHEN MIN. R.F.=1)  AT K=   3, I=   2, J=  30
     1 CALLS TO GCG PACKAGE FOR TRANSPORT TIME STEP   2 IN FLOW TIME STEP  38 STRESS PERIOD   2
    17 TOTAL ITERATIONS
0WARNING: NUMERICAL OSCILLATION ENCOUNTERED
 ONE OR MORE CELL CONCENTRATIONS LESS THAN CRHOREF
 SMALLEST DENSITY =  0.100E+04
 AT CELL (I,J,K) = (   3,  60,  27)

>>>>>>> Stashed changes
 
 SOLVING FOR HEAD 
 FLOW MODEL IS TRANSIENT
 FLOW MODEL CONTAINS CONSTANT-HEAD CELLS


 MAXIMUM STEPSIZE DURING WHICH ANY PARTICLE CANNOT MOVE MORE THAN ONE CELL
<<<<<<< Updated upstream
 = 0.1634    (WHEN MIN. R.F.=1)  AT K=   3, I=   2, J=  29

 MAXIMUM STEPSIZE WHICH MEETS STABILITY CRITERION OF THE ADVECTION TERM
 (FOR PURE FINITE-DIFFERENCE OPTION, MIXELM=0) 
 = 0.1133    (WHEN MIN. R.F.=1)  AT K=   3, I=   2, J=  28
=======
 = 0.1871    (WHEN MIN. R.F.=1)  AT K=   3, I=   2, J=  31

 MAXIMUM STEPSIZE WHICH MEETS STABILITY CRITERION OF THE ADVECTION TERM
 (FOR PURE FINITE-DIFFERENCE OPTION, MIXELM=0) 
 = 0.1249    (WHEN MIN. R.F.=1)  AT K=   3, I=   2, J=  30
>>>>>>> Stashed changes


 TOTAL NUMBER OF POINT SOURCES/SINKS PRESENT IN THE FLOW MODEL =   240

 MAXIMUM STEPSIZE WHICH MEETS STABILITY CRITERION OF THE SINK & SOURCE TERM
 = 0.1000E+31(WHEN MIN. R.F.=1)  AT K=   0, I=   0, J=   0

 MAXIMUM STEPSIZE WHICH MEETS STABILITY CRITERION OF THE DISPERSION TERM
<<<<<<< Updated upstream
 = 0.6200E-02(WHEN MIN. R.F.=1)  AT K=   3, I=   2, J=  31
     1 CALLS TO GCG PACKAGE FOR TRANSPORT TIME STEP   5 IN FLOW TIME STEP  44 STRESS PERIOD   2
    15 TOTAL ITERATIONS
=======
 = 0.6704E-02(WHEN MIN. R.F.=1)  AT K=   3, I=   2, J=  30
     1 CALLS TO GCG PACKAGE FOR TRANSPORT TIME STEP   3 IN FLOW TIME STEP  38 STRESS PERIOD   2
    17 TOTAL ITERATIONS
0WARNING: NUMERICAL OSCILLATION ENCOUNTERED
 ONE OR MORE CELL CONCENTRATIONS LESS THAN CRHOREF
 SMALLEST DENSITY =  0.100E+04
 AT CELL (I,J,K) = (   3,  60,  27)

>>>>>>> Stashed changes
 
 SOLVING FOR HEAD 
 FLOW MODEL IS TRANSIENT
 FLOW MODEL CONTAINS CONSTANT-HEAD CELLS


 MAXIMUM STEPSIZE DURING WHICH ANY PARTICLE CANNOT MOVE MORE THAN ONE CELL
<<<<<<< Updated upstream
 = 0.1634    (WHEN MIN. R.F.=1)  AT K=   3, I=   2, J=  29

 MAXIMUM STEPSIZE WHICH MEETS STABILITY CRITERION OF THE ADVECTION TERM
 (FOR PURE FINITE-DIFFERENCE OPTION, MIXELM=0) 
 = 0.1133    (WHEN MIN. R.F.=1)  AT K=   3, I=   2, J=  28
=======
 = 0.1871    (WHEN MIN. R.F.=1)  AT K=   3, I=   2, J=  31

 MAXIMUM STEPSIZE WHICH MEETS STABILITY CRITERION OF THE ADVECTION TERM
 (FOR PURE FINITE-DIFFERENCE OPTION, MIXELM=0) 
 = 0.1249    (WHEN MIN. R.F.=1)  AT K=   3, I=   2, J=  30
>>>>>>> Stashed changes


 TOTAL NUMBER OF POINT SOURCES/SINKS PRESENT IN THE FLOW MODEL =   240

 MAXIMUM STEPSIZE WHICH MEETS STABILITY CRITERION OF THE SINK & SOURCE TERM
 = 0.1000E+31(WHEN MIN. R.F.=1)  AT K=   0, I=   0, J=   0

 MAXIMUM STEPSIZE WHICH MEETS STABILITY CRITERION OF THE DISPERSION TERM
<<<<<<< Updated upstream
 = 0.6200E-02(WHEN MIN. R.F.=1)  AT K=   3, I=   2, J=  31
     1 CALLS TO GCG PACKAGE FOR TRANSPORT TIME STEP   6 IN FLOW TIME STEP  44 STRESS PERIOD   2
    15 TOTAL ITERATIONS
=======
 = 0.6704E-02(WHEN MIN. R.F.=1)  AT K=   3, I=   2, J=  30
     1 CALLS TO GCG PACKAGE FOR TRANSPORT TIME STEP   4 IN FLOW TIME STEP  38 STRESS PERIOD   2
    17 TOTAL ITERATIONS
0WARNING: NUMERICAL OSCILLATION ENCOUNTERED
 ONE OR MORE CELL CONCENTRATIONS LESS THAN CRHOREF
 SMALLEST DENSITY =  0.100E+04
 AT CELL (I,J,K) = (   3,  60,  27)

>>>>>>> Stashed changes
 
 SOLVING FOR HEAD 
 FLOW MODEL IS TRANSIENT
 FLOW MODEL CONTAINS CONSTANT-HEAD CELLS


 MAXIMUM STEPSIZE DURING WHICH ANY PARTICLE CANNOT MOVE MORE THAN ONE CELL
<<<<<<< Updated upstream
 = 0.1634    (WHEN MIN. R.F.=1)  AT K=   3, I=   2, J=  29

 MAXIMUM STEPSIZE WHICH MEETS STABILITY CRITERION OF THE ADVECTION TERM
 (FOR PURE FINITE-DIFFERENCE OPTION, MIXELM=0) 
 = 0.1133    (WHEN MIN. R.F.=1)  AT K=   3, I=   2, J=  28
=======
 = 0.1871    (WHEN MIN. R.F.=1)  AT K=   3, I=   2, J=  31

 MAXIMUM STEPSIZE WHICH MEETS STABILITY CRITERION OF THE ADVECTION TERM
 (FOR PURE FINITE-DIFFERENCE OPTION, MIXELM=0) 
 = 0.1249    (WHEN MIN. R.F.=1)  AT K=   3, I=   2, J=  30
>>>>>>> Stashed changes


 TOTAL NUMBER OF POINT SOURCES/SINKS PRESENT IN THE FLOW MODEL =   240

 MAXIMUM STEPSIZE WHICH MEETS STABILITY CRITERION OF THE SINK & SOURCE TERM
 = 0.1000E+31(WHEN MIN. R.F.=1)  AT K=   0, I=   0, J=   0

 MAXIMUM STEPSIZE WHICH MEETS STABILITY CRITERION OF THE DISPERSION TERM
<<<<<<< Updated upstream
 = 0.6200E-02(WHEN MIN. R.F.=1)  AT K=   3, I=   2, J=  31
     1 CALLS TO GCG PACKAGE FOR TRANSPORT TIME STEP   7 IN FLOW TIME STEP  44 STRESS PERIOD   2
    16 TOTAL ITERATIONS
=======
 = 0.6704E-02(WHEN MIN. R.F.=1)  AT K=   3, I=   2, J=  30
     1 CALLS TO GCG PACKAGE FOR TRANSPORT TIME STEP   5 IN FLOW TIME STEP  38 STRESS PERIOD   2
    17 TOTAL ITERATIONS
0WARNING: NUMERICAL OSCILLATION ENCOUNTERED
 ONE OR MORE CELL CONCENTRATIONS LESS THAN CRHOREF
 SMALLEST DENSITY =  0.100E+04
 AT CELL (I,J,K) = (   3,  60,  27)

>>>>>>> Stashed changes
 
 SOLVING FOR HEAD 
 FLOW MODEL IS TRANSIENT
 FLOW MODEL CONTAINS CONSTANT-HEAD CELLS


 MAXIMUM STEPSIZE DURING WHICH ANY PARTICLE CANNOT MOVE MORE THAN ONE CELL
<<<<<<< Updated upstream
 = 0.1634    (WHEN MIN. R.F.=1)  AT K=   3, I=   2, J=  29

 MAXIMUM STEPSIZE WHICH MEETS STABILITY CRITERION OF THE ADVECTION TERM
 (FOR PURE FINITE-DIFFERENCE OPTION, MIXELM=0) 
 = 0.1133    (WHEN MIN. R.F.=1)  AT K=   3, I=   2, J=  28
=======
 = 0.1871    (WHEN MIN. R.F.=1)  AT K=   3, I=   2, J=  31

 MAXIMUM STEPSIZE WHICH MEETS STABILITY CRITERION OF THE ADVECTION TERM
 (FOR PURE FINITE-DIFFERENCE OPTION, MIXELM=0) 
 = 0.1249    (WHEN MIN. R.F.=1)  AT K=   3, I=   2, J=  30
>>>>>>> Stashed changes


 TOTAL NUMBER OF POINT SOURCES/SINKS PRESENT IN THE FLOW MODEL =   240

 MAXIMUM STEPSIZE WHICH MEETS STABILITY CRITERION OF THE SINK & SOURCE TERM
 = 0.1000E+31(WHEN MIN. R.F.=1)  AT K=   0, I=   0, J=   0

 MAXIMUM STEPSIZE WHICH MEETS STABILITY CRITERION OF THE DISPERSION TERM
<<<<<<< Updated upstream
 = 0.6200E-02(WHEN MIN. R.F.=1)  AT K=   3, I=   2, J=  31
     1 CALLS TO GCG PACKAGE FOR TRANSPORT TIME STEP   8 IN FLOW TIME STEP  44 STRESS PERIOD   2
    15 TOTAL ITERATIONS
=======
 = 0.6704E-02(WHEN MIN. R.F.=1)  AT K=   3, I=   2, J=  30
     1 CALLS TO GCG PACKAGE FOR TRANSPORT TIME STEP   6 IN FLOW TIME STEP  38 STRESS PERIOD   2
    17 TOTAL ITERATIONS
0WARNING: NUMERICAL OSCILLATION ENCOUNTERED
 ONE OR MORE CELL CONCENTRATIONS LESS THAN CRHOREF
 SMALLEST DENSITY =  0.100E+04
 AT CELL (I,J,K) = (   3,  60,  27)

>>>>>>> Stashed changes
 
 SOLVING FOR HEAD 
 FLOW MODEL IS TRANSIENT
 FLOW MODEL CONTAINS CONSTANT-HEAD CELLS


 MAXIMUM STEPSIZE DURING WHICH ANY PARTICLE CANNOT MOVE MORE THAN ONE CELL
<<<<<<< Updated upstream
 = 0.1633    (WHEN MIN. R.F.=1)  AT K=   3, I=   2, J=  29

 MAXIMUM STEPSIZE WHICH MEETS STABILITY CRITERION OF THE ADVECTION TERM
 (FOR PURE FINITE-DIFFERENCE OPTION, MIXELM=0) 
 = 0.1133    (WHEN MIN. R.F.=1)  AT K=   3, I=   2, J=  28
=======
 = 0.1871    (WHEN MIN. R.F.=1)  AT K=   3, I=   2, J=  31

 MAXIMUM STEPSIZE WHICH MEETS STABILITY CRITERION OF THE ADVECTION TERM
 (FOR PURE FINITE-DIFFERENCE OPTION, MIXELM=0) 
 = 0.1249    (WHEN MIN. R.F.=1)  AT K=   3, I=   2, J=  30
>>>>>>> Stashed changes


 TOTAL NUMBER OF POINT SOURCES/SINKS PRESENT IN THE FLOW MODEL =   240

 MAXIMUM STEPSIZE WHICH MEETS STABILITY CRITERION OF THE SINK & SOURCE TERM
 = 0.1000E+31(WHEN MIN. R.F.=1)  AT K=   0, I=   0, J=   0

 MAXIMUM STEPSIZE WHICH MEETS STABILITY CRITERION OF THE DISPERSION TERM
<<<<<<< Updated upstream
 = 0.6200E-02(WHEN MIN. R.F.=1)  AT K=   3, I=   2, J=  31
     1 CALLS TO GCG PACKAGE FOR TRANSPORT TIME STEP   9 IN FLOW TIME STEP  44 STRESS PERIOD   2
     7 TOTAL ITERATIONS
  MAXIMUM CONCENTRATION CHANGES FOR EACH ITERATION:
  MAX. CHANGE LAYER,ROW,COL MAX. CHANGE LAYER,ROW,COL MAX. CHANGE LAYER,ROW,COL MAX. CHANGE LAYER,ROW,COL MAX. CHANGE LAYER,ROW,COL
 ------------------------------------------------------------------------------------------------------------------------------------
   0.2016E-03 ( 13,  3, 53)  0.1297E-04 (  5,  2, 62)  0.2683E-05 (  6,  1, 55)  0.8493E-06 (  3,  3, 31)  0.3721E-06 (  3,  3, 30)
   0.1553E-06 (  3,  3, 31)  0.5116E-07 (  3,  3, 30)


                                          ================================================
                                                         FROM TIME =   45.000     TO    46.000    
=======
 = 0.6704E-02(WHEN MIN. R.F.=1)  AT K=   3, I=   2, J=  30
     1 CALLS TO GCG PACKAGE FOR TRANSPORT TIME STEP   7 IN FLOW TIME STEP  38 STRESS PERIOD   2
    17 TOTAL ITERATIONS
0WARNING: NUMERICAL OSCILLATION ENCOUNTERED
 ONE OR MORE CELL CONCENTRATIONS LESS THAN CRHOREF
 SMALLEST DENSITY =  0.100E+04
 AT CELL (I,J,K) = (   3,  60,  27)
>>>>>>> Stashed changes

 
 SOLVING FOR HEAD 
 FLOW MODEL IS TRANSIENT
 FLOW MODEL CONTAINS CONSTANT-HEAD CELLS


 MAXIMUM STEPSIZE DURING WHICH ANY PARTICLE CANNOT MOVE MORE THAN ONE CELL
<<<<<<< Updated upstream
 = 0.1633    (WHEN MIN. R.F.=1)  AT K=   3, I=   2, J=  29

 MAXIMUM STEPSIZE WHICH MEETS STABILITY CRITERION OF THE ADVECTION TERM
 (FOR PURE FINITE-DIFFERENCE OPTION, MIXELM=0) 
 = 0.1133    (WHEN MIN. R.F.=1)  AT K=   3, I=   2, J=  28
=======
 = 0.1871    (WHEN MIN. R.F.=1)  AT K=   3, I=   2, J=  31

 MAXIMUM STEPSIZE WHICH MEETS STABILITY CRITERION OF THE ADVECTION TERM
 (FOR PURE FINITE-DIFFERENCE OPTION, MIXELM=0) 
 = 0.1249    (WHEN MIN. R.F.=1)  AT K=   3, I=   2, J=  30
>>>>>>> Stashed changes


 TOTAL NUMBER OF POINT SOURCES/SINKS PRESENT IN THE FLOW MODEL =   240

 MAXIMUM STEPSIZE WHICH MEETS STABILITY CRITERION OF THE SINK & SOURCE TERM
 = 0.1000E+31(WHEN MIN. R.F.=1)  AT K=   0, I=   0, J=   0

 MAXIMUM STEPSIZE WHICH MEETS STABILITY CRITERION OF THE DISPERSION TERM
<<<<<<< Updated upstream
 = 0.6200E-02(WHEN MIN. R.F.=1)  AT K=   3, I=   2, J=  31


     1 CALLS TO GCG PACKAGE FOR TRANSPORT TIME STEP   1 IN FLOW TIME STEP  45 STRESS PERIOD   2
    15 TOTAL ITERATIONS

 NO OUTPUT CONTROL FOR STRESS PERIOD    2   TIME STEP  45
=======
 = 0.6704E-02(WHEN MIN. R.F.=1)  AT K=   3, I=   2, J=  30
     1 CALLS TO GCG PACKAGE FOR TRANSPORT TIME STEP   8 IN FLOW TIME STEP  38 STRESS PERIOD   2
     6 TOTAL ITERATIONS
  MAXIMUM CONCENTRATION CHANGES FOR EACH ITERATION:
  MAX. CHANGE LAYER,ROW,COL MAX. CHANGE LAYER,ROW,COL MAX. CHANGE LAYER,ROW,COL MAX. CHANGE LAYER,ROW,COL MAX. CHANGE LAYER,ROW,COL
 ------------------------------------------------------------------------------------------------------------------------------------
   0.1952E-03 ( 13,  2, 56)  0.1093E-04 (  6,  1, 52)  0.2593E-05 (  4,  2, 44)  0.9499E-06 (  3,  2, 37)  0.2421E-06 (  4,  2, 37)
   0.8414E-07 (  3,  1, 31)
 UBDSV1 SAVING "         STORAGE" ON UNIT  53 AT TIME STEP 38, STRESS PERIOD   2
 UBDSV2 SAVING "   CONSTANT HEAD" ON UNIT  53 AT TIME STEP 38, STRESS PERIOD   2
 UBDSV1 SAVING "FLOW RIGHT FACE " ON UNIT  53 AT TIME STEP 38, STRESS PERIOD   2
 UBDSV1 SAVING "FLOW FRONT FACE " ON UNIT  53 AT TIME STEP 38, STRESS PERIOD   2
 UBDSV1 SAVING "FLOW LOWER FACE " ON UNIT  53 AT TIME STEP 38, STRESS PERIOD   2
 UBDSV1 SAVING "            DCDT" ON UNIT  53 AT TIME STEP 38, STRESS PERIOD   2
0WARNING: NUMERICAL OSCILLATION ENCOUNTERED
 ONE OR MORE CELL CONCENTRATIONS LESS THAN CRHOREF
 SMALLEST DENSITY =  0.100E+04
 AT CELL (I,J,K) = (   3,  60,  27)


 HEAD WILL BE SAVED ON UNIT   51 AT END OF TIME STEP  38, STRESS PERIOD    2


                                          ================================================
                                                         FROM TIME =   39.000     TO    40.000    

>>>>>>> Stashed changes
 
 SOLVING FOR HEAD 
 FLOW MODEL IS TRANSIENT
 FLOW MODEL CONTAINS CONSTANT-HEAD CELLS


 MAXIMUM STEPSIZE DURING WHICH ANY PARTICLE CANNOT MOVE MORE THAN ONE CELL
<<<<<<< Updated upstream
 = 0.1633    (WHEN MIN. R.F.=1)  AT K=   3, I=   2, J=  29

 MAXIMUM STEPSIZE WHICH MEETS STABILITY CRITERION OF THE ADVECTION TERM
 (FOR PURE FINITE-DIFFERENCE OPTION, MIXELM=0) 
 = 0.1133    (WHEN MIN. R.F.=1)  AT K=   3, I=   2, J=  28
=======
 = 0.1871    (WHEN MIN. R.F.=1)  AT K=   3, I=   2, J=  31

 MAXIMUM STEPSIZE WHICH MEETS STABILITY CRITERION OF THE ADVECTION TERM
 (FOR PURE FINITE-DIFFERENCE OPTION, MIXELM=0) 
 = 0.1249    (WHEN MIN. R.F.=1)  AT K=   3, I=   2, J=  30
>>>>>>> Stashed changes


 TOTAL NUMBER OF POINT SOURCES/SINKS PRESENT IN THE FLOW MODEL =   240

 MAXIMUM STEPSIZE WHICH MEETS STABILITY CRITERION OF THE SINK & SOURCE TERM
 = 0.1000E+31(WHEN MIN. R.F.=1)  AT K=   0, I=   0, J=   0

 MAXIMUM STEPSIZE WHICH MEETS STABILITY CRITERION OF THE DISPERSION TERM
<<<<<<< Updated upstream
 = 0.6200E-02(WHEN MIN. R.F.=1)  AT K=   3, I=   2, J=  31
     1 CALLS TO GCG PACKAGE FOR TRANSPORT TIME STEP   2 IN FLOW TIME STEP  45 STRESS PERIOD   2
    15 TOTAL ITERATIONS
=======
 = 0.6704E-02(WHEN MIN. R.F.=1)  AT K=   3, I=   2, J=  30


     1 CALLS TO GCG PACKAGE FOR TRANSPORT TIME STEP   1 IN FLOW TIME STEP  39 STRESS PERIOD   2
    17 TOTAL ITERATIONS

 OUTPUT CONTROL FOR STRESS PERIOD    2   TIME STEP  39
    SAVE HEAD FOR ALL LAYERS
    SAVE BUDGET
0WARNING: NUMERICAL OSCILLATION ENCOUNTERED
 ONE OR MORE CELL CONCENTRATIONS LESS THAN CRHOREF
 SMALLEST DENSITY =  0.100E+04
 AT CELL (I,J,K) = (   3,  60,  27)

>>>>>>> Stashed changes
 
 SOLVING FOR HEAD 
 FLOW MODEL IS TRANSIENT
 FLOW MODEL CONTAINS CONSTANT-HEAD CELLS


 MAXIMUM STEPSIZE DURING WHICH ANY PARTICLE CANNOT MOVE MORE THAN ONE CELL
<<<<<<< Updated upstream
 = 0.1633    (WHEN MIN. R.F.=1)  AT K=   3, I=   2, J=  29

 MAXIMUM STEPSIZE WHICH MEETS STABILITY CRITERION OF THE ADVECTION TERM
 (FOR PURE FINITE-DIFFERENCE OPTION, MIXELM=0) 
 = 0.1133    (WHEN MIN. R.F.=1)  AT K=   3, I=   2, J=  28
=======
 = 0.1871    (WHEN MIN. R.F.=1)  AT K=   3, I=   2, J=  31

 MAXIMUM STEPSIZE WHICH MEETS STABILITY CRITERION OF THE ADVECTION TERM
 (FOR PURE FINITE-DIFFERENCE OPTION, MIXELM=0) 
 = 0.1249    (WHEN MIN. R.F.=1)  AT K=   3, I=   2, J=  30
>>>>>>> Stashed changes


 TOTAL NUMBER OF POINT SOURCES/SINKS PRESENT IN THE FLOW MODEL =   240

 MAXIMUM STEPSIZE WHICH MEETS STABILITY CRITERION OF THE SINK & SOURCE TERM
 = 0.1000E+31(WHEN MIN. R.F.=1)  AT K=   0, I=   0, J=   0

 MAXIMUM STEPSIZE WHICH MEETS STABILITY CRITERION OF THE DISPERSION TERM
<<<<<<< Updated upstream
 = 0.6200E-02(WHEN MIN. R.F.=1)  AT K=   3, I=   2, J=  31
     1 CALLS TO GCG PACKAGE FOR TRANSPORT TIME STEP   3 IN FLOW TIME STEP  45 STRESS PERIOD   2
    15 TOTAL ITERATIONS
=======
 = 0.6704E-02(WHEN MIN. R.F.=1)  AT K=   3, I=   2, J=  30
     1 CALLS TO GCG PACKAGE FOR TRANSPORT TIME STEP   2 IN FLOW TIME STEP  39 STRESS PERIOD   2
    17 TOTAL ITERATIONS
0WARNING: NUMERICAL OSCILLATION ENCOUNTERED
 ONE OR MORE CELL CONCENTRATIONS LESS THAN CRHOREF
 SMALLEST DENSITY =  0.100E+04
 AT CELL (I,J,K) = (   3,  60,  27)

>>>>>>> Stashed changes
 
 SOLVING FOR HEAD 
 FLOW MODEL IS TRANSIENT
 FLOW MODEL CONTAINS CONSTANT-HEAD CELLS


 MAXIMUM STEPSIZE DURING WHICH ANY PARTICLE CANNOT MOVE MORE THAN ONE CELL
<<<<<<< Updated upstream
 = 0.1633    (WHEN MIN. R.F.=1)  AT K=   3, I=   2, J=  29

 MAXIMUM STEPSIZE WHICH MEETS STABILITY CRITERION OF THE ADVECTION TERM
 (FOR PURE FINITE-DIFFERENCE OPTION, MIXELM=0) 
 = 0.1133    (WHEN MIN. R.F.=1)  AT K=   3, I=   2, J=  28
=======
 = 0.1871    (WHEN MIN. R.F.=1)  AT K=   3, I=   2, J=  31

 MAXIMUM STEPSIZE WHICH MEETS STABILITY CRITERION OF THE ADVECTION TERM
 (FOR PURE FINITE-DIFFERENCE OPTION, MIXELM=0) 
 = 0.1249    (WHEN MIN. R.F.=1)  AT K=   3, I=   2, J=  30
>>>>>>> Stashed changes


 TOTAL NUMBER OF POINT SOURCES/SINKS PRESENT IN THE FLOW MODEL =   240

 MAXIMUM STEPSIZE WHICH MEETS STABILITY CRITERION OF THE SINK & SOURCE TERM
 = 0.1000E+31(WHEN MIN. R.F.=1)  AT K=   0, I=   0, J=   0

 MAXIMUM STEPSIZE WHICH MEETS STABILITY CRITERION OF THE DISPERSION TERM
<<<<<<< Updated upstream
 = 0.6200E-02(WHEN MIN. R.F.=1)  AT K=   3, I=   2, J=  31
     1 CALLS TO GCG PACKAGE FOR TRANSPORT TIME STEP   4 IN FLOW TIME STEP  45 STRESS PERIOD   2
    15 TOTAL ITERATIONS
=======
 = 0.6704E-02(WHEN MIN. R.F.=1)  AT K=   3, I=   2, J=  30
     1 CALLS TO GCG PACKAGE FOR TRANSPORT TIME STEP   3 IN FLOW TIME STEP  39 STRESS PERIOD   2
    17 TOTAL ITERATIONS
0WARNING: NUMERICAL OSCILLATION ENCOUNTERED
 ONE OR MORE CELL CONCENTRATIONS LESS THAN CRHOREF
 SMALLEST DENSITY =  0.100E+04
 AT CELL (I,J,K) = (   3,  60,  27)

>>>>>>> Stashed changes
 
 SOLVING FOR HEAD 
 FLOW MODEL IS TRANSIENT
 FLOW MODEL CONTAINS CONSTANT-HEAD CELLS


 MAXIMUM STEPSIZE DURING WHICH ANY PARTICLE CANNOT MOVE MORE THAN ONE CELL
<<<<<<< Updated upstream
 = 0.1633    (WHEN MIN. R.F.=1)  AT K=   3, I=   2, J=  29

 MAXIMUM STEPSIZE WHICH MEETS STABILITY CRITERION OF THE ADVECTION TERM
 (FOR PURE FINITE-DIFFERENCE OPTION, MIXELM=0) 
 = 0.1133    (WHEN MIN. R.F.=1)  AT K=   3, I=   2, J=  28
=======
 = 0.1871    (WHEN MIN. R.F.=1)  AT K=   3, I=   2, J=  31

 MAXIMUM STEPSIZE WHICH MEETS STABILITY CRITERION OF THE ADVECTION TERM
 (FOR PURE FINITE-DIFFERENCE OPTION, MIXELM=0) 
 = 0.1249    (WHEN MIN. R.F.=1)  AT K=   3, I=   2, J=  30
>>>>>>> Stashed changes


 TOTAL NUMBER OF POINT SOURCES/SINKS PRESENT IN THE FLOW MODEL =   240

 MAXIMUM STEPSIZE WHICH MEETS STABILITY CRITERION OF THE SINK & SOURCE TERM
 = 0.1000E+31(WHEN MIN. R.F.=1)  AT K=   0, I=   0, J=   0

 MAXIMUM STEPSIZE WHICH MEETS STABILITY CRITERION OF THE DISPERSION TERM
<<<<<<< Updated upstream
 = 0.6200E-02(WHEN MIN. R.F.=1)  AT K=   3, I=   2, J=  31
     1 CALLS TO GCG PACKAGE FOR TRANSPORT TIME STEP   5 IN FLOW TIME STEP  45 STRESS PERIOD   2
    15 TOTAL ITERATIONS
=======
 = 0.6704E-02(WHEN MIN. R.F.=1)  AT K=   3, I=   2, J=  30
     1 CALLS TO GCG PACKAGE FOR TRANSPORT TIME STEP   4 IN FLOW TIME STEP  39 STRESS PERIOD   2
    17 TOTAL ITERATIONS
0WARNING: NUMERICAL OSCILLATION ENCOUNTERED
 ONE OR MORE CELL CONCENTRATIONS LESS THAN CRHOREF
 SMALLEST DENSITY =  0.100E+04
 AT CELL (I,J,K) = (   3,  60,  27)

>>>>>>> Stashed changes
 
 SOLVING FOR HEAD 
 FLOW MODEL IS TRANSIENT
 FLOW MODEL CONTAINS CONSTANT-HEAD CELLS


 MAXIMUM STEPSIZE DURING WHICH ANY PARTICLE CANNOT MOVE MORE THAN ONE CELL
<<<<<<< Updated upstream
 = 0.1633    (WHEN MIN. R.F.=1)  AT K=   3, I=   2, J=  29

 MAXIMUM STEPSIZE WHICH MEETS STABILITY CRITERION OF THE ADVECTION TERM
 (FOR PURE FINITE-DIFFERENCE OPTION, MIXELM=0) 
 = 0.1133    (WHEN MIN. R.F.=1)  AT K=   3, I=   2, J=  28
=======
 = 0.1871    (WHEN MIN. R.F.=1)  AT K=   3, I=   2, J=  31

 MAXIMUM STEPSIZE WHICH MEETS STABILITY CRITERION OF THE ADVECTION TERM
 (FOR PURE FINITE-DIFFERENCE OPTION, MIXELM=0) 
 = 0.1249    (WHEN MIN. R.F.=1)  AT K=   3, I=   2, J=  30
>>>>>>> Stashed changes


 TOTAL NUMBER OF POINT SOURCES/SINKS PRESENT IN THE FLOW MODEL =   240

 MAXIMUM STEPSIZE WHICH MEETS STABILITY CRITERION OF THE SINK & SOURCE TERM
 = 0.1000E+31(WHEN MIN. R.F.=1)  AT K=   0, I=   0, J=   0

 MAXIMUM STEPSIZE WHICH MEETS STABILITY CRITERION OF THE DISPERSION TERM
<<<<<<< Updated upstream
 = 0.6199E-02(WHEN MIN. R.F.=1)  AT K=   3, I=   2, J=  31
     1 CALLS TO GCG PACKAGE FOR TRANSPORT TIME STEP   6 IN FLOW TIME STEP  45 STRESS PERIOD   2
    15 TOTAL ITERATIONS
=======
 = 0.6704E-02(WHEN MIN. R.F.=1)  AT K=   3, I=   2, J=  30
     1 CALLS TO GCG PACKAGE FOR TRANSPORT TIME STEP   5 IN FLOW TIME STEP  39 STRESS PERIOD   2
    17 TOTAL ITERATIONS
0WARNING: NUMERICAL OSCILLATION ENCOUNTERED
 ONE OR MORE CELL CONCENTRATIONS LESS THAN CRHOREF
 SMALLEST DENSITY =  0.100E+04
 AT CELL (I,J,K) = (   3,  60,  27)

>>>>>>> Stashed changes
 
 SOLVING FOR HEAD 
 FLOW MODEL IS TRANSIENT
 FLOW MODEL CONTAINS CONSTANT-HEAD CELLS


 MAXIMUM STEPSIZE DURING WHICH ANY PARTICLE CANNOT MOVE MORE THAN ONE CELL
<<<<<<< Updated upstream
 = 0.1633    (WHEN MIN. R.F.=1)  AT K=   3, I=   2, J=  29

 MAXIMUM STEPSIZE WHICH MEETS STABILITY CRITERION OF THE ADVECTION TERM
 (FOR PURE FINITE-DIFFERENCE OPTION, MIXELM=0) 
 = 0.1133    (WHEN MIN. R.F.=1)  AT K=   3, I=   2, J=  28
=======
 = 0.1871    (WHEN MIN. R.F.=1)  AT K=   3, I=   2, J=  31

 MAXIMUM STEPSIZE WHICH MEETS STABILITY CRITERION OF THE ADVECTION TERM
 (FOR PURE FINITE-DIFFERENCE OPTION, MIXELM=0) 
 = 0.1249    (WHEN MIN. R.F.=1)  AT K=   3, I=   2, J=  30
>>>>>>> Stashed changes


 TOTAL NUMBER OF POINT SOURCES/SINKS PRESENT IN THE FLOW MODEL =   240

 MAXIMUM STEPSIZE WHICH MEETS STABILITY CRITERION OF THE SINK & SOURCE TERM
 = 0.1000E+31(WHEN MIN. R.F.=1)  AT K=   0, I=   0, J=   0

 MAXIMUM STEPSIZE WHICH MEETS STABILITY CRITERION OF THE DISPERSION TERM
<<<<<<< Updated upstream
 = 0.6199E-02(WHEN MIN. R.F.=1)  AT K=   3, I=   2, J=  31
     1 CALLS TO GCG PACKAGE FOR TRANSPORT TIME STEP   7 IN FLOW TIME STEP  45 STRESS PERIOD   2
    15 TOTAL ITERATIONS
=======
 = 0.6704E-02(WHEN MIN. R.F.=1)  AT K=   3, I=   2, J=  30
     1 CALLS TO GCG PACKAGE FOR TRANSPORT TIME STEP   6 IN FLOW TIME STEP  39 STRESS PERIOD   2
    17 TOTAL ITERATIONS
0WARNING: NUMERICAL OSCILLATION ENCOUNTERED
 ONE OR MORE CELL CONCENTRATIONS LESS THAN CRHOREF
 SMALLEST DENSITY =  0.100E+04
 AT CELL (I,J,K) = (   3,  60,  27)

>>>>>>> Stashed changes
 
 SOLVING FOR HEAD 
 FLOW MODEL IS TRANSIENT
 FLOW MODEL CONTAINS CONSTANT-HEAD CELLS


 MAXIMUM STEPSIZE DURING WHICH ANY PARTICLE CANNOT MOVE MORE THAN ONE CELL
<<<<<<< Updated upstream
 = 0.1633    (WHEN MIN. R.F.=1)  AT K=   3, I=   2, J=  29

 MAXIMUM STEPSIZE WHICH MEETS STABILITY CRITERION OF THE ADVECTION TERM
 (FOR PURE FINITE-DIFFERENCE OPTION, MIXELM=0) 
 = 0.1133    (WHEN MIN. R.F.=1)  AT K=   3, I=   2, J=  28
=======
 = 0.1871    (WHEN MIN. R.F.=1)  AT K=   3, I=   2, J=  31

 MAXIMUM STEPSIZE WHICH MEETS STABILITY CRITERION OF THE ADVECTION TERM
 (FOR PURE FINITE-DIFFERENCE OPTION, MIXELM=0) 
 = 0.1249    (WHEN MIN. R.F.=1)  AT K=   3, I=   2, J=  30
>>>>>>> Stashed changes


 TOTAL NUMBER OF POINT SOURCES/SINKS PRESENT IN THE FLOW MODEL =   240

 MAXIMUM STEPSIZE WHICH MEETS STABILITY CRITERION OF THE SINK & SOURCE TERM
 = 0.1000E+31(WHEN MIN. R.F.=1)  AT K=   0, I=   0, J=   0

 MAXIMUM STEPSIZE WHICH MEETS STABILITY CRITERION OF THE DISPERSION TERM
<<<<<<< Updated upstream
 = 0.6199E-02(WHEN MIN. R.F.=1)  AT K=   3, I=   2, J=  31
     1 CALLS TO GCG PACKAGE FOR TRANSPORT TIME STEP   8 IN FLOW TIME STEP  45 STRESS PERIOD   2
    15 TOTAL ITERATIONS
=======
 = 0.6704E-02(WHEN MIN. R.F.=1)  AT K=   3, I=   2, J=  30
     1 CALLS TO GCG PACKAGE FOR TRANSPORT TIME STEP   7 IN FLOW TIME STEP  39 STRESS PERIOD   2
    17 TOTAL ITERATIONS
0WARNING: NUMERICAL OSCILLATION ENCOUNTERED
 ONE OR MORE CELL CONCENTRATIONS LESS THAN CRHOREF
 SMALLEST DENSITY =  0.100E+04
 AT CELL (I,J,K) = (   3,  60,  27)

>>>>>>> Stashed changes
 
 SOLVING FOR HEAD 
 FLOW MODEL IS TRANSIENT
 FLOW MODEL CONTAINS CONSTANT-HEAD CELLS


 MAXIMUM STEPSIZE DURING WHICH ANY PARTICLE CANNOT MOVE MORE THAN ONE CELL
<<<<<<< Updated upstream
 = 0.1633    (WHEN MIN. R.F.=1)  AT K=   3, I=   2, J=  29

 MAXIMUM STEPSIZE WHICH MEETS STABILITY CRITERION OF THE ADVECTION TERM
 (FOR PURE FINITE-DIFFERENCE OPTION, MIXELM=0) 
 = 0.1133    (WHEN MIN. R.F.=1)  AT K=   3, I=   2, J=  28
=======
 = 0.1871    (WHEN MIN. R.F.=1)  AT K=   3, I=   2, J=  31

 MAXIMUM STEPSIZE WHICH MEETS STABILITY CRITERION OF THE ADVECTION TERM
 (FOR PURE FINITE-DIFFERENCE OPTION, MIXELM=0) 
 = 0.1249    (WHEN MIN. R.F.=1)  AT K=   3, I=   2, J=  30
>>>>>>> Stashed changes


 TOTAL NUMBER OF POINT SOURCES/SINKS PRESENT IN THE FLOW MODEL =   240

 MAXIMUM STEPSIZE WHICH MEETS STABILITY CRITERION OF THE SINK & SOURCE TERM
 = 0.1000E+31(WHEN MIN. R.F.=1)  AT K=   0, I=   0, J=   0

 MAXIMUM STEPSIZE WHICH MEETS STABILITY CRITERION OF THE DISPERSION TERM
<<<<<<< Updated upstream
 = 0.6199E-02(WHEN MIN. R.F.=1)  AT K=   3, I=   2, J=  31
     1 CALLS TO GCG PACKAGE FOR TRANSPORT TIME STEP   9 IN FLOW TIME STEP  45 STRESS PERIOD   2
     7 TOTAL ITERATIONS
  MAXIMUM CONCENTRATION CHANGES FOR EACH ITERATION:
  MAX. CHANGE LAYER,ROW,COL MAX. CHANGE LAYER,ROW,COL MAX. CHANGE LAYER,ROW,COL MAX. CHANGE LAYER,ROW,COL MAX. CHANGE LAYER,ROW,COL
 ------------------------------------------------------------------------------------------------------------------------------------
   0.1974E-03 ( 13,  3, 53)  0.1249E-04 (  5,  2, 62)  0.2582E-05 (  6,  1, 55)  0.8024E-06 (  3,  3, 31)  0.3518E-06 (  3,  3, 30)
   0.1404E-06 (  3,  3, 31)  0.4683E-07 (  3,  3, 30)


                                          ================================================
                                                         FROM TIME =   46.000     TO    47.000    
=======
 = 0.6704E-02(WHEN MIN. R.F.=1)  AT K=   3, I=   2, J=  30
     1 CALLS TO GCG PACKAGE FOR TRANSPORT TIME STEP   8 IN FLOW TIME STEP  39 STRESS PERIOD   2
     6 TOTAL ITERATIONS
  MAXIMUM CONCENTRATION CHANGES FOR EACH ITERATION:
  MAX. CHANGE LAYER,ROW,COL MAX. CHANGE LAYER,ROW,COL MAX. CHANGE LAYER,ROW,COL MAX. CHANGE LAYER,ROW,COL MAX. CHANGE LAYER,ROW,COL
 ------------------------------------------------------------------------------------------------------------------------------------
   0.1892E-03 ( 14,  3, 46)  0.1041E-04 (  6,  1, 52)  0.2465E-05 (  4,  2, 44)  0.9040E-06 (  3,  2, 37)  0.2313E-06 (  4,  2, 37)
   0.8025E-07 (  3,  1, 31)
 UBDSV1 SAVING "         STORAGE" ON UNIT  53 AT TIME STEP 39, STRESS PERIOD   2
 UBDSV2 SAVING "   CONSTANT HEAD" ON UNIT  53 AT TIME STEP 39, STRESS PERIOD   2
 UBDSV1 SAVING "FLOW RIGHT FACE " ON UNIT  53 AT TIME STEP 39, STRESS PERIOD   2
 UBDSV1 SAVING "FLOW FRONT FACE " ON UNIT  53 AT TIME STEP 39, STRESS PERIOD   2
 UBDSV1 SAVING "FLOW LOWER FACE " ON UNIT  53 AT TIME STEP 39, STRESS PERIOD   2
 UBDSV1 SAVING "            DCDT" ON UNIT  53 AT TIME STEP 39, STRESS PERIOD   2
0WARNING: NUMERICAL OSCILLATION ENCOUNTERED
 ONE OR MORE CELL CONCENTRATIONS LESS THAN CRHOREF
 SMALLEST DENSITY =  0.100E+04
 AT CELL (I,J,K) = (   3,  60,  27)


 HEAD WILL BE SAVED ON UNIT   51 AT END OF TIME STEP  39, STRESS PERIOD    2


                                          ================================================
                                                         FROM TIME =   40.000     TO    41.000    
>>>>>>> Stashed changes

 
 SOLVING FOR HEAD 
 FLOW MODEL IS TRANSIENT
 FLOW MODEL CONTAINS CONSTANT-HEAD CELLS


 MAXIMUM STEPSIZE DURING WHICH ANY PARTICLE CANNOT MOVE MORE THAN ONE CELL
<<<<<<< Updated upstream
 = 0.1633    (WHEN MIN. R.F.=1)  AT K=   3, I=   2, J=  29

 MAXIMUM STEPSIZE WHICH MEETS STABILITY CRITERION OF THE ADVECTION TERM
 (FOR PURE FINITE-DIFFERENCE OPTION, MIXELM=0) 
 = 0.1133    (WHEN MIN. R.F.=1)  AT K=   3, I=   2, J=  28
=======
 = 0.1871    (WHEN MIN. R.F.=1)  AT K=   3, I=   2, J=  31

 MAXIMUM STEPSIZE WHICH MEETS STABILITY CRITERION OF THE ADVECTION TERM
 (FOR PURE FINITE-DIFFERENCE OPTION, MIXELM=0) 
 = 0.1249    (WHEN MIN. R.F.=1)  AT K=   3, I=   2, J=  30
>>>>>>> Stashed changes


 TOTAL NUMBER OF POINT SOURCES/SINKS PRESENT IN THE FLOW MODEL =   240

 MAXIMUM STEPSIZE WHICH MEETS STABILITY CRITERION OF THE SINK & SOURCE TERM
 = 0.1000E+31(WHEN MIN. R.F.=1)  AT K=   0, I=   0, J=   0

 MAXIMUM STEPSIZE WHICH MEETS STABILITY CRITERION OF THE DISPERSION TERM
<<<<<<< Updated upstream
 = 0.6199E-02(WHEN MIN. R.F.=1)  AT K=   3, I=   2, J=  31


     1 CALLS TO GCG PACKAGE FOR TRANSPORT TIME STEP   1 IN FLOW TIME STEP  46 STRESS PERIOD   2
    15 TOTAL ITERATIONS

 NO OUTPUT CONTROL FOR STRESS PERIOD    2   TIME STEP  46
=======
 = 0.6704E-02(WHEN MIN. R.F.=1)  AT K=   3, I=   2, J=  30


     1 CALLS TO GCG PACKAGE FOR TRANSPORT TIME STEP   1 IN FLOW TIME STEP  40 STRESS PERIOD   2
    17 TOTAL ITERATIONS

 OUTPUT CONTROL FOR STRESS PERIOD    2   TIME STEP  40
    SAVE HEAD FOR ALL LAYERS
    SAVE BUDGET
0WARNING: NUMERICAL OSCILLATION ENCOUNTERED
 ONE OR MORE CELL CONCENTRATIONS LESS THAN CRHOREF
 SMALLEST DENSITY =  0.100E+04
 AT CELL (I,J,K) = (   3,  60,  27)

>>>>>>> Stashed changes
 
 SOLVING FOR HEAD 
 FLOW MODEL IS TRANSIENT
 FLOW MODEL CONTAINS CONSTANT-HEAD CELLS


 MAXIMUM STEPSIZE DURING WHICH ANY PARTICLE CANNOT MOVE MORE THAN ONE CELL
<<<<<<< Updated upstream
 = 0.1633    (WHEN MIN. R.F.=1)  AT K=   3, I=   2, J=  29

 MAXIMUM STEPSIZE WHICH MEETS STABILITY CRITERION OF THE ADVECTION TERM
 (FOR PURE FINITE-DIFFERENCE OPTION, MIXELM=0) 
 = 0.1133    (WHEN MIN. R.F.=1)  AT K=   3, I=   2, J=  28
=======
 = 0.1871    (WHEN MIN. R.F.=1)  AT K=   3, I=   2, J=  31

 MAXIMUM STEPSIZE WHICH MEETS STABILITY CRITERION OF THE ADVECTION TERM
 (FOR PURE FINITE-DIFFERENCE OPTION, MIXELM=0) 
 = 0.1249    (WHEN MIN. R.F.=1)  AT K=   3, I=   2, J=  30
>>>>>>> Stashed changes


 TOTAL NUMBER OF POINT SOURCES/SINKS PRESENT IN THE FLOW MODEL =   240

 MAXIMUM STEPSIZE WHICH MEETS STABILITY CRITERION OF THE SINK & SOURCE TERM
 = 0.1000E+31(WHEN MIN. R.F.=1)  AT K=   0, I=   0, J=   0

 MAXIMUM STEPSIZE WHICH MEETS STABILITY CRITERION OF THE DISPERSION TERM
<<<<<<< Updated upstream
 = 0.6199E-02(WHEN MIN. R.F.=1)  AT K=   3, I=   2, J=  31
     1 CALLS TO GCG PACKAGE FOR TRANSPORT TIME STEP   2 IN FLOW TIME STEP  46 STRESS PERIOD   2
    15 TOTAL ITERATIONS
=======
 = 0.6704E-02(WHEN MIN. R.F.=1)  AT K=   3, I=   2, J=  30
     1 CALLS TO GCG PACKAGE FOR TRANSPORT TIME STEP   2 IN FLOW TIME STEP  40 STRESS PERIOD   2
    17 TOTAL ITERATIONS
0WARNING: NUMERICAL OSCILLATION ENCOUNTERED
 ONE OR MORE CELL CONCENTRATIONS LESS THAN CRHOREF
 SMALLEST DENSITY =  0.100E+04
 AT CELL (I,J,K) = (   3,  60,  27)

>>>>>>> Stashed changes
 
 SOLVING FOR HEAD 
 FLOW MODEL IS TRANSIENT
 FLOW MODEL CONTAINS CONSTANT-HEAD CELLS


 MAXIMUM STEPSIZE DURING WHICH ANY PARTICLE CANNOT MOVE MORE THAN ONE CELL
<<<<<<< Updated upstream
 = 0.1633    (WHEN MIN. R.F.=1)  AT K=   3, I=   2, J=  29

 MAXIMUM STEPSIZE WHICH MEETS STABILITY CRITERION OF THE ADVECTION TERM
 (FOR PURE FINITE-DIFFERENCE OPTION, MIXELM=0) 
 = 0.1133    (WHEN MIN. R.F.=1)  AT K=   3, I=   2, J=  28
=======
 = 0.1871    (WHEN MIN. R.F.=1)  AT K=   3, I=   2, J=  31

 MAXIMUM STEPSIZE WHICH MEETS STABILITY CRITERION OF THE ADVECTION TERM
 (FOR PURE FINITE-DIFFERENCE OPTION, MIXELM=0) 
 = 0.1249    (WHEN MIN. R.F.=1)  AT K=   3, I=   2, J=  30
>>>>>>> Stashed changes


 TOTAL NUMBER OF POINT SOURCES/SINKS PRESENT IN THE FLOW MODEL =   240

 MAXIMUM STEPSIZE WHICH MEETS STABILITY CRITERION OF THE SINK & SOURCE TERM
 = 0.1000E+31(WHEN MIN. R.F.=1)  AT K=   0, I=   0, J=   0

 MAXIMUM STEPSIZE WHICH MEETS STABILITY CRITERION OF THE DISPERSION TERM
<<<<<<< Updated upstream
 = 0.6199E-02(WHEN MIN. R.F.=1)  AT K=   3, I=   2, J=  31
     1 CALLS TO GCG PACKAGE FOR TRANSPORT TIME STEP   3 IN FLOW TIME STEP  46 STRESS PERIOD   2
    15 TOTAL ITERATIONS
=======
 = 0.6704E-02(WHEN MIN. R.F.=1)  AT K=   3, I=   2, J=  30
     1 CALLS TO GCG PACKAGE FOR TRANSPORT TIME STEP   3 IN FLOW TIME STEP  40 STRESS PERIOD   2
    17 TOTAL ITERATIONS
0WARNING: NUMERICAL OSCILLATION ENCOUNTERED
 ONE OR MORE CELL CONCENTRATIONS LESS THAN CRHOREF
 SMALLEST DENSITY =  0.100E+04
 AT CELL (I,J,K) = (   3,  60,  27)

>>>>>>> Stashed changes
 
 SOLVING FOR HEAD 
 FLOW MODEL IS TRANSIENT
 FLOW MODEL CONTAINS CONSTANT-HEAD CELLS


 MAXIMUM STEPSIZE DURING WHICH ANY PARTICLE CANNOT MOVE MORE THAN ONE CELL
<<<<<<< Updated upstream
 = 0.1633    (WHEN MIN. R.F.=1)  AT K=   3, I=   2, J=  29

 MAXIMUM STEPSIZE WHICH MEETS STABILITY CRITERION OF THE ADVECTION TERM
 (FOR PURE FINITE-DIFFERENCE OPTION, MIXELM=0) 
 = 0.1133    (WHEN MIN. R.F.=1)  AT K=   3, I=   2, J=  28
=======
 = 0.1871    (WHEN MIN. R.F.=1)  AT K=   3, I=   2, J=  31

 MAXIMUM STEPSIZE WHICH MEETS STABILITY CRITERION OF THE ADVECTION TERM
 (FOR PURE FINITE-DIFFERENCE OPTION, MIXELM=0) 
 = 0.1249    (WHEN MIN. R.F.=1)  AT K=   3, I=   2, J=  30
>>>>>>> Stashed changes


 TOTAL NUMBER OF POINT SOURCES/SINKS PRESENT IN THE FLOW MODEL =   240

 MAXIMUM STEPSIZE WHICH MEETS STABILITY CRITERION OF THE SINK & SOURCE TERM
 = 0.1000E+31(WHEN MIN. R.F.=1)  AT K=   0, I=   0, J=   0

 MAXIMUM STEPSIZE WHICH MEETS STABILITY CRITERION OF THE DISPERSION TERM
<<<<<<< Updated upstream
 = 0.6199E-02(WHEN MIN. R.F.=1)  AT K=   3, I=   2, J=  31
     1 CALLS TO GCG PACKAGE FOR TRANSPORT TIME STEP   4 IN FLOW TIME STEP  46 STRESS PERIOD   2
    15 TOTAL ITERATIONS
=======
 = 0.6703E-02(WHEN MIN. R.F.=1)  AT K=   3, I=   2, J=  30
     1 CALLS TO GCG PACKAGE FOR TRANSPORT TIME STEP   4 IN FLOW TIME STEP  40 STRESS PERIOD   2
    17 TOTAL ITERATIONS
0WARNING: NUMERICAL OSCILLATION ENCOUNTERED
 ONE OR MORE CELL CONCENTRATIONS LESS THAN CRHOREF
 SMALLEST DENSITY =  0.100E+04
 AT CELL (I,J,K) = (   3,  60,  27)

>>>>>>> Stashed changes
 
 SOLVING FOR HEAD 
 FLOW MODEL IS TRANSIENT
 FLOW MODEL CONTAINS CONSTANT-HEAD CELLS


 MAXIMUM STEPSIZE DURING WHICH ANY PARTICLE CANNOT MOVE MORE THAN ONE CELL
<<<<<<< Updated upstream
 = 0.1633    (WHEN MIN. R.F.=1)  AT K=   3, I=   2, J=  29

 MAXIMUM STEPSIZE WHICH MEETS STABILITY CRITERION OF THE ADVECTION TERM
 (FOR PURE FINITE-DIFFERENCE OPTION, MIXELM=0) 
 = 0.1133    (WHEN MIN. R.F.=1)  AT K=   3, I=   2, J=  28
=======
 = 0.1870    (WHEN MIN. R.F.=1)  AT K=   3, I=   2, J=  31

 MAXIMUM STEPSIZE WHICH MEETS STABILITY CRITERION OF THE ADVECTION TERM
 (FOR PURE FINITE-DIFFERENCE OPTION, MIXELM=0) 
 = 0.1249    (WHEN MIN. R.F.=1)  AT K=   3, I=   2, J=  30
>>>>>>> Stashed changes


 TOTAL NUMBER OF POINT SOURCES/SINKS PRESENT IN THE FLOW MODEL =   240

 MAXIMUM STEPSIZE WHICH MEETS STABILITY CRITERION OF THE SINK & SOURCE TERM
 = 0.1000E+31(WHEN MIN. R.F.=1)  AT K=   0, I=   0, J=   0

 MAXIMUM STEPSIZE WHICH MEETS STABILITY CRITERION OF THE DISPERSION TERM
<<<<<<< Updated upstream
 = 0.6199E-02(WHEN MIN. R.F.=1)  AT K=   3, I=   2, J=  31
     1 CALLS TO GCG PACKAGE FOR TRANSPORT TIME STEP   5 IN FLOW TIME STEP  46 STRESS PERIOD   2
    15 TOTAL ITERATIONS
=======
 = 0.6703E-02(WHEN MIN. R.F.=1)  AT K=   3, I=   2, J=  30
     1 CALLS TO GCG PACKAGE FOR TRANSPORT TIME STEP   5 IN FLOW TIME STEP  40 STRESS PERIOD   2
    17 TOTAL ITERATIONS
0WARNING: NUMERICAL OSCILLATION ENCOUNTERED
 ONE OR MORE CELL CONCENTRATIONS LESS THAN CRHOREF
 SMALLEST DENSITY =  0.100E+04
 AT CELL (I,J,K) = (   3,  60,  27)

>>>>>>> Stashed changes
 
 SOLVING FOR HEAD 
 FLOW MODEL IS TRANSIENT
 FLOW MODEL CONTAINS CONSTANT-HEAD CELLS


 MAXIMUM STEPSIZE DURING WHICH ANY PARTICLE CANNOT MOVE MORE THAN ONE CELL
<<<<<<< Updated upstream
 = 0.1633    (WHEN MIN. R.F.=1)  AT K=   3, I=   2, J=  29

 MAXIMUM STEPSIZE WHICH MEETS STABILITY CRITERION OF THE ADVECTION TERM
 (FOR PURE FINITE-DIFFERENCE OPTION, MIXELM=0) 
 = 0.1133    (WHEN MIN. R.F.=1)  AT K=   3, I=   2, J=  28
=======
 = 0.1870    (WHEN MIN. R.F.=1)  AT K=   3, I=   2, J=  31

 MAXIMUM STEPSIZE WHICH MEETS STABILITY CRITERION OF THE ADVECTION TERM
 (FOR PURE FINITE-DIFFERENCE OPTION, MIXELM=0) 
 = 0.1249    (WHEN MIN. R.F.=1)  AT K=   3, I=   2, J=  30
>>>>>>> Stashed changes


 TOTAL NUMBER OF POINT SOURCES/SINKS PRESENT IN THE FLOW MODEL =   240

 MAXIMUM STEPSIZE WHICH MEETS STABILITY CRITERION OF THE SINK & SOURCE TERM
 = 0.1000E+31(WHEN MIN. R.F.=1)  AT K=   0, I=   0, J=   0

 MAXIMUM STEPSIZE WHICH MEETS STABILITY CRITERION OF THE DISPERSION TERM
<<<<<<< Updated upstream
 = 0.6199E-02(WHEN MIN. R.F.=1)  AT K=   3, I=   2, J=  31
     1 CALLS TO GCG PACKAGE FOR TRANSPORT TIME STEP   6 IN FLOW TIME STEP  46 STRESS PERIOD   2
    15 TOTAL ITERATIONS
=======
 = 0.6703E-02(WHEN MIN. R.F.=1)  AT K=   3, I=   2, J=  30
     1 CALLS TO GCG PACKAGE FOR TRANSPORT TIME STEP   6 IN FLOW TIME STEP  40 STRESS PERIOD   2
    17 TOTAL ITERATIONS
0WARNING: NUMERICAL OSCILLATION ENCOUNTERED
 ONE OR MORE CELL CONCENTRATIONS LESS THAN CRHOREF
 SMALLEST DENSITY =  0.100E+04
 AT CELL (I,J,K) = (   3,  60,  27)

>>>>>>> Stashed changes
 
 SOLVING FOR HEAD 
 FLOW MODEL IS TRANSIENT
 FLOW MODEL CONTAINS CONSTANT-HEAD CELLS


 MAXIMUM STEPSIZE DURING WHICH ANY PARTICLE CANNOT MOVE MORE THAN ONE CELL
<<<<<<< Updated upstream
 = 0.1633    (WHEN MIN. R.F.=1)  AT K=   3, I=   2, J=  29

 MAXIMUM STEPSIZE WHICH MEETS STABILITY CRITERION OF THE ADVECTION TERM
 (FOR PURE FINITE-DIFFERENCE OPTION, MIXELM=0) 
 = 0.1133    (WHEN MIN. R.F.=1)  AT K=   3, I=   2, J=  28
=======
 = 0.1870    (WHEN MIN. R.F.=1)  AT K=   3, I=   2, J=  31

 MAXIMUM STEPSIZE WHICH MEETS STABILITY CRITERION OF THE ADVECTION TERM
 (FOR PURE FINITE-DIFFERENCE OPTION, MIXELM=0) 
 = 0.1249    (WHEN MIN. R.F.=1)  AT K=   3, I=   2, J=  30
>>>>>>> Stashed changes


 TOTAL NUMBER OF POINT SOURCES/SINKS PRESENT IN THE FLOW MODEL =   240

 MAXIMUM STEPSIZE WHICH MEETS STABILITY CRITERION OF THE SINK & SOURCE TERM
 = 0.1000E+31(WHEN MIN. R.F.=1)  AT K=   0, I=   0, J=   0

 MAXIMUM STEPSIZE WHICH MEETS STABILITY CRITERION OF THE DISPERSION TERM
<<<<<<< Updated upstream
 = 0.6199E-02(WHEN MIN. R.F.=1)  AT K=   3, I=   2, J=  31
     1 CALLS TO GCG PACKAGE FOR TRANSPORT TIME STEP   7 IN FLOW TIME STEP  46 STRESS PERIOD   2
    15 TOTAL ITERATIONS
=======
 = 0.6703E-02(WHEN MIN. R.F.=1)  AT K=   3, I=   2, J=  30
     1 CALLS TO GCG PACKAGE FOR TRANSPORT TIME STEP   7 IN FLOW TIME STEP  40 STRESS PERIOD   2
    17 TOTAL ITERATIONS
0WARNING: NUMERICAL OSCILLATION ENCOUNTERED
 ONE OR MORE CELL CONCENTRATIONS LESS THAN CRHOREF
 SMALLEST DENSITY =  0.100E+04
 AT CELL (I,J,K) = (   3,  60,  27)

>>>>>>> Stashed changes
 
 SOLVING FOR HEAD 
 FLOW MODEL IS TRANSIENT
 FLOW MODEL CONTAINS CONSTANT-HEAD CELLS


 MAXIMUM STEPSIZE DURING WHICH ANY PARTICLE CANNOT MOVE MORE THAN ONE CELL
<<<<<<< Updated upstream
 = 0.1633    (WHEN MIN. R.F.=1)  AT K=   3, I=   2, J=  29

 MAXIMUM STEPSIZE WHICH MEETS STABILITY CRITERION OF THE ADVECTION TERM
 (FOR PURE FINITE-DIFFERENCE OPTION, MIXELM=0) 
 = 0.1133    (WHEN MIN. R.F.=1)  AT K=   3, I=   2, J=  28
=======
 = 0.1870    (WHEN MIN. R.F.=1)  AT K=   3, I=   2, J=  31

 MAXIMUM STEPSIZE WHICH MEETS STABILITY CRITERION OF THE ADVECTION TERM
 (FOR PURE FINITE-DIFFERENCE OPTION, MIXELM=0) 
 = 0.1249    (WHEN MIN. R.F.=1)  AT K=   3, I=   2, J=  30
>>>>>>> Stashed changes


 TOTAL NUMBER OF POINT SOURCES/SINKS PRESENT IN THE FLOW MODEL =   240

 MAXIMUM STEPSIZE WHICH MEETS STABILITY CRITERION OF THE SINK & SOURCE TERM
 = 0.1000E+31(WHEN MIN. R.F.=1)  AT K=   0, I=   0, J=   0

 MAXIMUM STEPSIZE WHICH MEETS STABILITY CRITERION OF THE DISPERSION TERM
<<<<<<< Updated upstream
 = 0.6199E-02(WHEN MIN. R.F.=1)  AT K=   3, I=   2, J=  31
     1 CALLS TO GCG PACKAGE FOR TRANSPORT TIME STEP   8 IN FLOW TIME STEP  46 STRESS PERIOD   2
    15 TOTAL ITERATIONS
=======
 = 0.6703E-02(WHEN MIN. R.F.=1)  AT K=   3, I=   2, J=  30
     1 CALLS TO GCG PACKAGE FOR TRANSPORT TIME STEP   8 IN FLOW TIME STEP  40 STRESS PERIOD   2
     6 TOTAL ITERATIONS
  MAXIMUM CONCENTRATION CHANGES FOR EACH ITERATION:
  MAX. CHANGE LAYER,ROW,COL MAX. CHANGE LAYER,ROW,COL MAX. CHANGE LAYER,ROW,COL MAX. CHANGE LAYER,ROW,COL MAX. CHANGE LAYER,ROW,COL
 ------------------------------------------------------------------------------------------------------------------------------------
   0.1867E-03 ( 14,  3, 46)  0.9922E-05 (  6,  1, 52)  0.2346E-05 (  4,  2, 44)  0.8614E-06 (  3,  2, 37)  0.2213E-06 (  4,  2, 37)
   0.7663E-07 (  3,  1, 31)
 UBDSV1 SAVING "         STORAGE" ON UNIT  53 AT TIME STEP 40, STRESS PERIOD   2
 UBDSV2 SAVING "   CONSTANT HEAD" ON UNIT  53 AT TIME STEP 40, STRESS PERIOD   2
 UBDSV1 SAVING "FLOW RIGHT FACE " ON UNIT  53 AT TIME STEP 40, STRESS PERIOD   2
 UBDSV1 SAVING "FLOW FRONT FACE " ON UNIT  53 AT TIME STEP 40, STRESS PERIOD   2
 UBDSV1 SAVING "FLOW LOWER FACE " ON UNIT  53 AT TIME STEP 40, STRESS PERIOD   2
 UBDSV1 SAVING "            DCDT" ON UNIT  53 AT TIME STEP 40, STRESS PERIOD   2
0WARNING: NUMERICAL OSCILLATION ENCOUNTERED
 ONE OR MORE CELL CONCENTRATIONS LESS THAN CRHOREF
 SMALLEST DENSITY =  0.100E+04
 AT CELL (I,J,K) = (   3,  60,  27)


 HEAD WILL BE SAVED ON UNIT   51 AT END OF TIME STEP  40, STRESS PERIOD    2


                                          ================================================
                                                         FROM TIME =   41.000     TO    42.000    

>>>>>>> Stashed changes
 
 SOLVING FOR HEAD 
 FLOW MODEL IS TRANSIENT
 FLOW MODEL CONTAINS CONSTANT-HEAD CELLS


 MAXIMUM STEPSIZE DURING WHICH ANY PARTICLE CANNOT MOVE MORE THAN ONE CELL
<<<<<<< Updated upstream
 = 0.1633    (WHEN MIN. R.F.=1)  AT K=   3, I=   2, J=  29

 MAXIMUM STEPSIZE WHICH MEETS STABILITY CRITERION OF THE ADVECTION TERM
 (FOR PURE FINITE-DIFFERENCE OPTION, MIXELM=0) 
 = 0.1133    (WHEN MIN. R.F.=1)  AT K=   3, I=   2, J=  28
=======
 = 0.1870    (WHEN MIN. R.F.=1)  AT K=   3, I=   2, J=  31

 MAXIMUM STEPSIZE WHICH MEETS STABILITY CRITERION OF THE ADVECTION TERM
 (FOR PURE FINITE-DIFFERENCE OPTION, MIXELM=0) 
 = 0.1249    (WHEN MIN. R.F.=1)  AT K=   3, I=   2, J=  30
>>>>>>> Stashed changes


 TOTAL NUMBER OF POINT SOURCES/SINKS PRESENT IN THE FLOW MODEL =   240

 MAXIMUM STEPSIZE WHICH MEETS STABILITY CRITERION OF THE SINK & SOURCE TERM
 = 0.1000E+31(WHEN MIN. R.F.=1)  AT K=   0, I=   0, J=   0

 MAXIMUM STEPSIZE WHICH MEETS STABILITY CRITERION OF THE DISPERSION TERM
<<<<<<< Updated upstream
 = 0.6199E-02(WHEN MIN. R.F.=1)  AT K=   3, I=   2, J=  31
     1 CALLS TO GCG PACKAGE FOR TRANSPORT TIME STEP   9 IN FLOW TIME STEP  46 STRESS PERIOD   2
     7 TOTAL ITERATIONS
  MAXIMUM CONCENTRATION CHANGES FOR EACH ITERATION:
  MAX. CHANGE LAYER,ROW,COL MAX. CHANGE LAYER,ROW,COL MAX. CHANGE LAYER,ROW,COL MAX. CHANGE LAYER,ROW,COL MAX. CHANGE LAYER,ROW,COL
 ------------------------------------------------------------------------------------------------------------------------------------
   0.1923E-03 ( 13,  3, 53)  0.1204E-04 (  5,  2, 62)  0.2487E-05 (  6,  1, 55)  0.7650E-06 (  3,  3, 31)  0.3367E-06 (  3,  3, 30)
   0.1340E-06 (  3,  3, 31)  0.4498E-07 (  3,  3, 30)


                                          ================================================
                                                         FROM TIME =   47.000     TO    48.000    
=======
 = 0.6703E-02(WHEN MIN. R.F.=1)  AT K=   3, I=   2, J=  30


     1 CALLS TO GCG PACKAGE FOR TRANSPORT TIME STEP   1 IN FLOW TIME STEP  41 STRESS PERIOD   2
    17 TOTAL ITERATIONS

 OUTPUT CONTROL FOR STRESS PERIOD    2   TIME STEP  41
    SAVE HEAD FOR ALL LAYERS
    SAVE BUDGET
0WARNING: NUMERICAL OSCILLATION ENCOUNTERED
 ONE OR MORE CELL CONCENTRATIONS LESS THAN CRHOREF
 SMALLEST DENSITY =  0.100E+04
 AT CELL (I,J,K) = (   3,  60,  27)
>>>>>>> Stashed changes

 
 SOLVING FOR HEAD 
 FLOW MODEL IS TRANSIENT
 FLOW MODEL CONTAINS CONSTANT-HEAD CELLS


 MAXIMUM STEPSIZE DURING WHICH ANY PARTICLE CANNOT MOVE MORE THAN ONE CELL
<<<<<<< Updated upstream
 = 0.1633    (WHEN MIN. R.F.=1)  AT K=   3, I=   2, J=  29

 MAXIMUM STEPSIZE WHICH MEETS STABILITY CRITERION OF THE ADVECTION TERM
 (FOR PURE FINITE-DIFFERENCE OPTION, MIXELM=0) 
 = 0.1133    (WHEN MIN. R.F.=1)  AT K=   3, I=   2, J=  28
=======
 = 0.1870    (WHEN MIN. R.F.=1)  AT K=   3, I=   2, J=  31

 MAXIMUM STEPSIZE WHICH MEETS STABILITY CRITERION OF THE ADVECTION TERM
 (FOR PURE FINITE-DIFFERENCE OPTION, MIXELM=0) 
 = 0.1249    (WHEN MIN. R.F.=1)  AT K=   3, I=   2, J=  30
>>>>>>> Stashed changes


 TOTAL NUMBER OF POINT SOURCES/SINKS PRESENT IN THE FLOW MODEL =   240

 MAXIMUM STEPSIZE WHICH MEETS STABILITY CRITERION OF THE SINK & SOURCE TERM
 = 0.1000E+31(WHEN MIN. R.F.=1)  AT K=   0, I=   0, J=   0

 MAXIMUM STEPSIZE WHICH MEETS STABILITY CRITERION OF THE DISPERSION TERM
<<<<<<< Updated upstream
 = 0.6199E-02(WHEN MIN. R.F.=1)  AT K=   3, I=   2, J=  31


     1 CALLS TO GCG PACKAGE FOR TRANSPORT TIME STEP   1 IN FLOW TIME STEP  47 STRESS PERIOD   2
    15 TOTAL ITERATIONS

 NO OUTPUT CONTROL FOR STRESS PERIOD    2   TIME STEP  47
=======
 = 0.6703E-02(WHEN MIN. R.F.=1)  AT K=   3, I=   2, J=  30
     1 CALLS TO GCG PACKAGE FOR TRANSPORT TIME STEP   2 IN FLOW TIME STEP  41 STRESS PERIOD   2
    17 TOTAL ITERATIONS
0WARNING: NUMERICAL OSCILLATION ENCOUNTERED
 ONE OR MORE CELL CONCENTRATIONS LESS THAN CRHOREF
 SMALLEST DENSITY =  0.100E+04
 AT CELL (I,J,K) = (   3,  60,  27)

>>>>>>> Stashed changes
 
 SOLVING FOR HEAD 
 FLOW MODEL IS TRANSIENT
 FLOW MODEL CONTAINS CONSTANT-HEAD CELLS


 MAXIMUM STEPSIZE DURING WHICH ANY PARTICLE CANNOT MOVE MORE THAN ONE CELL
<<<<<<< Updated upstream
 = 0.1633    (WHEN MIN. R.F.=1)  AT K=   3, I=   2, J=  29

 MAXIMUM STEPSIZE WHICH MEETS STABILITY CRITERION OF THE ADVECTION TERM
 (FOR PURE FINITE-DIFFERENCE OPTION, MIXELM=0) 
 = 0.1133    (WHEN MIN. R.F.=1)  AT K=   3, I=   2, J=  28
=======
 = 0.1870    (WHEN MIN. R.F.=1)  AT K=   3, I=   2, J=  31

 MAXIMUM STEPSIZE WHICH MEETS STABILITY CRITERION OF THE ADVECTION TERM
 (FOR PURE FINITE-DIFFERENCE OPTION, MIXELM=0) 
 = 0.1249    (WHEN MIN. R.F.=1)  AT K=   3, I=   2, J=  30
>>>>>>> Stashed changes


 TOTAL NUMBER OF POINT SOURCES/SINKS PRESENT IN THE FLOW MODEL =   240

 MAXIMUM STEPSIZE WHICH MEETS STABILITY CRITERION OF THE SINK & SOURCE TERM
 = 0.1000E+31(WHEN MIN. R.F.=1)  AT K=   0, I=   0, J=   0

 MAXIMUM STEPSIZE WHICH MEETS STABILITY CRITERION OF THE DISPERSION TERM
<<<<<<< Updated upstream
 = 0.6199E-02(WHEN MIN. R.F.=1)  AT K=   3, I=   2, J=  31
     1 CALLS TO GCG PACKAGE FOR TRANSPORT TIME STEP   2 IN FLOW TIME STEP  47 STRESS PERIOD   2
    15 TOTAL ITERATIONS
=======
 = 0.6703E-02(WHEN MIN. R.F.=1)  AT K=   3, I=   2, J=  30
     1 CALLS TO GCG PACKAGE FOR TRANSPORT TIME STEP   3 IN FLOW TIME STEP  41 STRESS PERIOD   2
    17 TOTAL ITERATIONS
0WARNING: NUMERICAL OSCILLATION ENCOUNTERED
 ONE OR MORE CELL CONCENTRATIONS LESS THAN CRHOREF
 SMALLEST DENSITY =  0.100E+04
 AT CELL (I,J,K) = (   3,  60,  27)

>>>>>>> Stashed changes
 
 SOLVING FOR HEAD 
 FLOW MODEL IS TRANSIENT
 FLOW MODEL CONTAINS CONSTANT-HEAD CELLS


 MAXIMUM STEPSIZE DURING WHICH ANY PARTICLE CANNOT MOVE MORE THAN ONE CELL
<<<<<<< Updated upstream
 = 0.1633    (WHEN MIN. R.F.=1)  AT K=   3, I=   2, J=  29

 MAXIMUM STEPSIZE WHICH MEETS STABILITY CRITERION OF THE ADVECTION TERM
 (FOR PURE FINITE-DIFFERENCE OPTION, MIXELM=0) 
 = 0.1133    (WHEN MIN. R.F.=1)  AT K=   3, I=   2, J=  28
=======
 = 0.1870    (WHEN MIN. R.F.=1)  AT K=   3, I=   2, J=  31

 MAXIMUM STEPSIZE WHICH MEETS STABILITY CRITERION OF THE ADVECTION TERM
 (FOR PURE FINITE-DIFFERENCE OPTION, MIXELM=0) 
 = 0.1249    (WHEN MIN. R.F.=1)  AT K=   3, I=   2, J=  30
>>>>>>> Stashed changes


 TOTAL NUMBER OF POINT SOURCES/SINKS PRESENT IN THE FLOW MODEL =   240

 MAXIMUM STEPSIZE WHICH MEETS STABILITY CRITERION OF THE SINK & SOURCE TERM
 = 0.1000E+31(WHEN MIN. R.F.=1)  AT K=   0, I=   0, J=   0

 MAXIMUM STEPSIZE WHICH MEETS STABILITY CRITERION OF THE DISPERSION TERM
<<<<<<< Updated upstream
 = 0.6199E-02(WHEN MIN. R.F.=1)  AT K=   3, I=   2, J=  31
     1 CALLS TO GCG PACKAGE FOR TRANSPORT TIME STEP   3 IN FLOW TIME STEP  47 STRESS PERIOD   2
    15 TOTAL ITERATIONS
=======
 = 0.6703E-02(WHEN MIN. R.F.=1)  AT K=   3, I=   2, J=  30
     1 CALLS TO GCG PACKAGE FOR TRANSPORT TIME STEP   4 IN FLOW TIME STEP  41 STRESS PERIOD   2
    17 TOTAL ITERATIONS
0WARNING: NUMERICAL OSCILLATION ENCOUNTERED
 ONE OR MORE CELL CONCENTRATIONS LESS THAN CRHOREF
 SMALLEST DENSITY =  0.100E+04
 AT CELL (I,J,K) = (   3,  60,  27)

>>>>>>> Stashed changes
 
 SOLVING FOR HEAD 
 FLOW MODEL IS TRANSIENT
 FLOW MODEL CONTAINS CONSTANT-HEAD CELLS


 MAXIMUM STEPSIZE DURING WHICH ANY PARTICLE CANNOT MOVE MORE THAN ONE CELL
<<<<<<< Updated upstream
 = 0.1633    (WHEN MIN. R.F.=1)  AT K=   3, I=   2, J=  29

 MAXIMUM STEPSIZE WHICH MEETS STABILITY CRITERION OF THE ADVECTION TERM
 (FOR PURE FINITE-DIFFERENCE OPTION, MIXELM=0) 
 = 0.1133    (WHEN MIN. R.F.=1)  AT K=   3, I=   2, J=  28
=======
 = 0.1870    (WHEN MIN. R.F.=1)  AT K=   3, I=   2, J=  31

 MAXIMUM STEPSIZE WHICH MEETS STABILITY CRITERION OF THE ADVECTION TERM
 (FOR PURE FINITE-DIFFERENCE OPTION, MIXELM=0) 
 = 0.1249    (WHEN MIN. R.F.=1)  AT K=   3, I=   2, J=  30
>>>>>>> Stashed changes


 TOTAL NUMBER OF POINT SOURCES/SINKS PRESENT IN THE FLOW MODEL =   240

 MAXIMUM STEPSIZE WHICH MEETS STABILITY CRITERION OF THE SINK & SOURCE TERM
 = 0.1000E+31(WHEN MIN. R.F.=1)  AT K=   0, I=   0, J=   0

 MAXIMUM STEPSIZE WHICH MEETS STABILITY CRITERION OF THE DISPERSION TERM
<<<<<<< Updated upstream
 = 0.6199E-02(WHEN MIN. R.F.=1)  AT K=   3, I=   2, J=  31
     1 CALLS TO GCG PACKAGE FOR TRANSPORT TIME STEP   4 IN FLOW TIME STEP  47 STRESS PERIOD   2
    15 TOTAL ITERATIONS
=======
 = 0.6703E-02(WHEN MIN. R.F.=1)  AT K=   3, I=   2, J=  30
     1 CALLS TO GCG PACKAGE FOR TRANSPORT TIME STEP   5 IN FLOW TIME STEP  41 STRESS PERIOD   2
    17 TOTAL ITERATIONS
0WARNING: NUMERICAL OSCILLATION ENCOUNTERED
 ONE OR MORE CELL CONCENTRATIONS LESS THAN CRHOREF
 SMALLEST DENSITY =  0.100E+04
 AT CELL (I,J,K) = (   3,  60,  27)

>>>>>>> Stashed changes
 
 SOLVING FOR HEAD 
 FLOW MODEL IS TRANSIENT
 FLOW MODEL CONTAINS CONSTANT-HEAD CELLS


 MAXIMUM STEPSIZE DURING WHICH ANY PARTICLE CANNOT MOVE MORE THAN ONE CELL
<<<<<<< Updated upstream
 = 0.1633    (WHEN MIN. R.F.=1)  AT K=   3, I=   2, J=  29

 MAXIMUM STEPSIZE WHICH MEETS STABILITY CRITERION OF THE ADVECTION TERM
 (FOR PURE FINITE-DIFFERENCE OPTION, MIXELM=0) 
 = 0.1133    (WHEN MIN. R.F.=1)  AT K=   3, I=   2, J=  28
=======
 = 0.1870    (WHEN MIN. R.F.=1)  AT K=   3, I=   2, J=  31

 MAXIMUM STEPSIZE WHICH MEETS STABILITY CRITERION OF THE ADVECTION TERM
 (FOR PURE FINITE-DIFFERENCE OPTION, MIXELM=0) 
 = 0.1249    (WHEN MIN. R.F.=1)  AT K=   3, I=   2, J=  30
>>>>>>> Stashed changes


 TOTAL NUMBER OF POINT SOURCES/SINKS PRESENT IN THE FLOW MODEL =   240

 MAXIMUM STEPSIZE WHICH MEETS STABILITY CRITERION OF THE SINK & SOURCE TERM
 = 0.1000E+31(WHEN MIN. R.F.=1)  AT K=   0, I=   0, J=   0

 MAXIMUM STEPSIZE WHICH MEETS STABILITY CRITERION OF THE DISPERSION TERM
<<<<<<< Updated upstream
 = 0.6199E-02(WHEN MIN. R.F.=1)  AT K=   3, I=   2, J=  31
     1 CALLS TO GCG PACKAGE FOR TRANSPORT TIME STEP   5 IN FLOW TIME STEP  47 STRESS PERIOD   2
    15 TOTAL ITERATIONS
=======
 = 0.6703E-02(WHEN MIN. R.F.=1)  AT K=   3, I=   2, J=  30
     1 CALLS TO GCG PACKAGE FOR TRANSPORT TIME STEP   6 IN FLOW TIME STEP  41 STRESS PERIOD   2
    17 TOTAL ITERATIONS
0WARNING: NUMERICAL OSCILLATION ENCOUNTERED
 ONE OR MORE CELL CONCENTRATIONS LESS THAN CRHOREF
 SMALLEST DENSITY =  0.100E+04
 AT CELL (I,J,K) = (   3,  60,  27)

>>>>>>> Stashed changes
 
 SOLVING FOR HEAD 
 FLOW MODEL IS TRANSIENT
 FLOW MODEL CONTAINS CONSTANT-HEAD CELLS


 MAXIMUM STEPSIZE DURING WHICH ANY PARTICLE CANNOT MOVE MORE THAN ONE CELL
<<<<<<< Updated upstream
 = 0.1633    (WHEN MIN. R.F.=1)  AT K=   3, I=   2, J=  29

 MAXIMUM STEPSIZE WHICH MEETS STABILITY CRITERION OF THE ADVECTION TERM
 (FOR PURE FINITE-DIFFERENCE OPTION, MIXELM=0) 
 = 0.1133    (WHEN MIN. R.F.=1)  AT K=   3, I=   2, J=  28
=======
 = 0.1870    (WHEN MIN. R.F.=1)  AT K=   3, I=   2, J=  31

 MAXIMUM STEPSIZE WHICH MEETS STABILITY CRITERION OF THE ADVECTION TERM
 (FOR PURE FINITE-DIFFERENCE OPTION, MIXELM=0) 
 = 0.1249    (WHEN MIN. R.F.=1)  AT K=   3, I=   2, J=  30
>>>>>>> Stashed changes


 TOTAL NUMBER OF POINT SOURCES/SINKS PRESENT IN THE FLOW MODEL =   240

 MAXIMUM STEPSIZE WHICH MEETS STABILITY CRITERION OF THE SINK & SOURCE TERM
 = 0.1000E+31(WHEN MIN. R.F.=1)  AT K=   0, I=   0, J=   0

 MAXIMUM STEPSIZE WHICH MEETS STABILITY CRITERION OF THE DISPERSION TERM
<<<<<<< Updated upstream
 = 0.6199E-02(WHEN MIN. R.F.=1)  AT K=   3, I=   2, J=  31
     1 CALLS TO GCG PACKAGE FOR TRANSPORT TIME STEP   6 IN FLOW TIME STEP  47 STRESS PERIOD   2
    15 TOTAL ITERATIONS
=======
 = 0.6703E-02(WHEN MIN. R.F.=1)  AT K=   3, I=   2, J=  30
     1 CALLS TO GCG PACKAGE FOR TRANSPORT TIME STEP   7 IN FLOW TIME STEP  41 STRESS PERIOD   2
    17 TOTAL ITERATIONS
0WARNING: NUMERICAL OSCILLATION ENCOUNTERED
 ONE OR MORE CELL CONCENTRATIONS LESS THAN CRHOREF
 SMALLEST DENSITY =  0.100E+04
 AT CELL (I,J,K) = (   3,  61,  27)

>>>>>>> Stashed changes
 
 SOLVING FOR HEAD 
 FLOW MODEL IS TRANSIENT
 FLOW MODEL CONTAINS CONSTANT-HEAD CELLS


 MAXIMUM STEPSIZE DURING WHICH ANY PARTICLE CANNOT MOVE MORE THAN ONE CELL
<<<<<<< Updated upstream
 = 0.1633    (WHEN MIN. R.F.=1)  AT K=   3, I=   2, J=  29

 MAXIMUM STEPSIZE WHICH MEETS STABILITY CRITERION OF THE ADVECTION TERM
 (FOR PURE FINITE-DIFFERENCE OPTION, MIXELM=0) 
 = 0.1133    (WHEN MIN. R.F.=1)  AT K=   3, I=   2, J=  28
=======
 = 0.1870    (WHEN MIN. R.F.=1)  AT K=   3, I=   2, J=  31

 MAXIMUM STEPSIZE WHICH MEETS STABILITY CRITERION OF THE ADVECTION TERM
 (FOR PURE FINITE-DIFFERENCE OPTION, MIXELM=0) 
 = 0.1249    (WHEN MIN. R.F.=1)  AT K=   3, I=   2, J=  30
>>>>>>> Stashed changes


 TOTAL NUMBER OF POINT SOURCES/SINKS PRESENT IN THE FLOW MODEL =   240

 MAXIMUM STEPSIZE WHICH MEETS STABILITY CRITERION OF THE SINK & SOURCE TERM
 = 0.1000E+31(WHEN MIN. R.F.=1)  AT K=   0, I=   0, J=   0

 MAXIMUM STEPSIZE WHICH MEETS STABILITY CRITERION OF THE DISPERSION TERM
<<<<<<< Updated upstream
 = 0.6199E-02(WHEN MIN. R.F.=1)  AT K=   3, I=   2, J=  31
     1 CALLS TO GCG PACKAGE FOR TRANSPORT TIME STEP   7 IN FLOW TIME STEP  47 STRESS PERIOD   2
    15 TOTAL ITERATIONS
=======
 = 0.6703E-02(WHEN MIN. R.F.=1)  AT K=   3, I=   2, J=  30
     1 CALLS TO GCG PACKAGE FOR TRANSPORT TIME STEP   8 IN FLOW TIME STEP  41 STRESS PERIOD   2
     6 TOTAL ITERATIONS
  MAXIMUM CONCENTRATION CHANGES FOR EACH ITERATION:
  MAX. CHANGE LAYER,ROW,COL MAX. CHANGE LAYER,ROW,COL MAX. CHANGE LAYER,ROW,COL MAX. CHANGE LAYER,ROW,COL MAX. CHANGE LAYER,ROW,COL
 ------------------------------------------------------------------------------------------------------------------------------------
   0.1841E-03 ( 14,  3, 46)  0.9494E-05 (  5,  2, 59)  0.2236E-05 (  4,  2, 44)  0.8218E-06 (  3,  2, 37)  0.2118E-06 (  4,  2, 37)
   0.7326E-07 (  3,  1, 31)
 UBDSV1 SAVING "         STORAGE" ON UNIT  53 AT TIME STEP 41, STRESS PERIOD   2
 UBDSV2 SAVING "   CONSTANT HEAD" ON UNIT  53 AT TIME STEP 41, STRESS PERIOD   2
 UBDSV1 SAVING "FLOW RIGHT FACE " ON UNIT  53 AT TIME STEP 41, STRESS PERIOD   2
 UBDSV1 SAVING "FLOW FRONT FACE " ON UNIT  53 AT TIME STEP 41, STRESS PERIOD   2
 UBDSV1 SAVING "FLOW LOWER FACE " ON UNIT  53 AT TIME STEP 41, STRESS PERIOD   2
 UBDSV1 SAVING "            DCDT" ON UNIT  53 AT TIME STEP 41, STRESS PERIOD   2
0WARNING: NUMERICAL OSCILLATION ENCOUNTERED
 ONE OR MORE CELL CONCENTRATIONS LESS THAN CRHOREF
 SMALLEST DENSITY =  0.100E+04
 AT CELL (I,J,K) = (   3,  61,  27)


 HEAD WILL BE SAVED ON UNIT   51 AT END OF TIME STEP  41, STRESS PERIOD    2


                                          ================================================
                                                         FROM TIME =   42.000     TO    43.000    

>>>>>>> Stashed changes
 
 SOLVING FOR HEAD 
 FLOW MODEL IS TRANSIENT
 FLOW MODEL CONTAINS CONSTANT-HEAD CELLS


 MAXIMUM STEPSIZE DURING WHICH ANY PARTICLE CANNOT MOVE MORE THAN ONE CELL
<<<<<<< Updated upstream
 = 0.1633    (WHEN MIN. R.F.=1)  AT K=   3, I=   2, J=  29

 MAXIMUM STEPSIZE WHICH MEETS STABILITY CRITERION OF THE ADVECTION TERM
 (FOR PURE FINITE-DIFFERENCE OPTION, MIXELM=0) 
 = 0.1133    (WHEN MIN. R.F.=1)  AT K=   3, I=   2, J=  28
=======
 = 0.1870    (WHEN MIN. R.F.=1)  AT K=   3, I=   2, J=  31

 MAXIMUM STEPSIZE WHICH MEETS STABILITY CRITERION OF THE ADVECTION TERM
 (FOR PURE FINITE-DIFFERENCE OPTION, MIXELM=0) 
 = 0.1249    (WHEN MIN. R.F.=1)  AT K=   3, I=   2, J=  30
>>>>>>> Stashed changes


 TOTAL NUMBER OF POINT SOURCES/SINKS PRESENT IN THE FLOW MODEL =   240

 MAXIMUM STEPSIZE WHICH MEETS STABILITY CRITERION OF THE SINK & SOURCE TERM
 = 0.1000E+31(WHEN MIN. R.F.=1)  AT K=   0, I=   0, J=   0

 MAXIMUM STEPSIZE WHICH MEETS STABILITY CRITERION OF THE DISPERSION TERM
<<<<<<< Updated upstream
 = 0.6199E-02(WHEN MIN. R.F.=1)  AT K=   3, I=   2, J=  31
     1 CALLS TO GCG PACKAGE FOR TRANSPORT TIME STEP   8 IN FLOW TIME STEP  47 STRESS PERIOD   2
    15 TOTAL ITERATIONS
=======
 = 0.6703E-02(WHEN MIN. R.F.=1)  AT K=   3, I=   2, J=  30


     1 CALLS TO GCG PACKAGE FOR TRANSPORT TIME STEP   1 IN FLOW TIME STEP  42 STRESS PERIOD   2
    17 TOTAL ITERATIONS

 OUTPUT CONTROL FOR STRESS PERIOD    2   TIME STEP  42
    SAVE HEAD FOR ALL LAYERS
    SAVE BUDGET
0WARNING: NUMERICAL OSCILLATION ENCOUNTERED
 ONE OR MORE CELL CONCENTRATIONS LESS THAN CRHOREF
 SMALLEST DENSITY =  0.100E+04
 AT CELL (I,J,K) = (   3,  61,  27)

>>>>>>> Stashed changes
 
 SOLVING FOR HEAD 
 FLOW MODEL IS TRANSIENT
 FLOW MODEL CONTAINS CONSTANT-HEAD CELLS


 MAXIMUM STEPSIZE DURING WHICH ANY PARTICLE CANNOT MOVE MORE THAN ONE CELL
<<<<<<< Updated upstream
 = 0.1633    (WHEN MIN. R.F.=1)  AT K=   3, I=   2, J=  29

 MAXIMUM STEPSIZE WHICH MEETS STABILITY CRITERION OF THE ADVECTION TERM
 (FOR PURE FINITE-DIFFERENCE OPTION, MIXELM=0) 
 = 0.1133    (WHEN MIN. R.F.=1)  AT K=   3, I=   2, J=  28
=======
 = 0.1870    (WHEN MIN. R.F.=1)  AT K=   3, I=   2, J=  31

 MAXIMUM STEPSIZE WHICH MEETS STABILITY CRITERION OF THE ADVECTION TERM
 (FOR PURE FINITE-DIFFERENCE OPTION, MIXELM=0) 
 = 0.1249    (WHEN MIN. R.F.=1)  AT K=   3, I=   2, J=  30
>>>>>>> Stashed changes


 TOTAL NUMBER OF POINT SOURCES/SINKS PRESENT IN THE FLOW MODEL =   240

 MAXIMUM STEPSIZE WHICH MEETS STABILITY CRITERION OF THE SINK & SOURCE TERM
 = 0.1000E+31(WHEN MIN. R.F.=1)  AT K=   0, I=   0, J=   0

 MAXIMUM STEPSIZE WHICH MEETS STABILITY CRITERION OF THE DISPERSION TERM
<<<<<<< Updated upstream
 = 0.6199E-02(WHEN MIN. R.F.=1)  AT K=   3, I=   2, J=  31
     1 CALLS TO GCG PACKAGE FOR TRANSPORT TIME STEP   9 IN FLOW TIME STEP  47 STRESS PERIOD   2
     7 TOTAL ITERATIONS
  MAXIMUM CONCENTRATION CHANGES FOR EACH ITERATION:
  MAX. CHANGE LAYER,ROW,COL MAX. CHANGE LAYER,ROW,COL MAX. CHANGE LAYER,ROW,COL MAX. CHANGE LAYER,ROW,COL MAX. CHANGE LAYER,ROW,COL
 ------------------------------------------------------------------------------------------------------------------------------------
   0.1870E-03 ( 13,  3, 53)  0.1162E-04 (  5,  2, 63)  0.2395E-05 (  6,  1, 55)  0.7273E-06 (  3,  3, 31)  0.3215E-06 (  3,  3, 30)
   0.1276E-06 (  3,  3, 31)  0.4317E-07 (  3,  3, 30)


                                          ================================================
                                                         FROM TIME =   48.000     TO    49.000    
=======
 = 0.6703E-02(WHEN MIN. R.F.=1)  AT K=   3, I=   2, J=  30
     1 CALLS TO GCG PACKAGE FOR TRANSPORT TIME STEP   2 IN FLOW TIME STEP  42 STRESS PERIOD   2
    17 TOTAL ITERATIONS
0WARNING: NUMERICAL OSCILLATION ENCOUNTERED
 ONE OR MORE CELL CONCENTRATIONS LESS THAN CRHOREF
 SMALLEST DENSITY =  0.100E+04
 AT CELL (I,J,K) = (   3,  61,  27)
>>>>>>> Stashed changes

 
 SOLVING FOR HEAD 
 FLOW MODEL IS TRANSIENT
 FLOW MODEL CONTAINS CONSTANT-HEAD CELLS


 MAXIMUM STEPSIZE DURING WHICH ANY PARTICLE CANNOT MOVE MORE THAN ONE CELL
<<<<<<< Updated upstream
 = 0.1633    (WHEN MIN. R.F.=1)  AT K=   3, I=   2, J=  29

 MAXIMUM STEPSIZE WHICH MEETS STABILITY CRITERION OF THE ADVECTION TERM
 (FOR PURE FINITE-DIFFERENCE OPTION, MIXELM=0) 
 = 0.1133    (WHEN MIN. R.F.=1)  AT K=   3, I=   2, J=  28
=======
 = 0.1870    (WHEN MIN. R.F.=1)  AT K=   3, I=   2, J=  31

 MAXIMUM STEPSIZE WHICH MEETS STABILITY CRITERION OF THE ADVECTION TERM
 (FOR PURE FINITE-DIFFERENCE OPTION, MIXELM=0) 
 = 0.1249    (WHEN MIN. R.F.=1)  AT K=   3, I=   2, J=  30
>>>>>>> Stashed changes


 TOTAL NUMBER OF POINT SOURCES/SINKS PRESENT IN THE FLOW MODEL =   240

 MAXIMUM STEPSIZE WHICH MEETS STABILITY CRITERION OF THE SINK & SOURCE TERM
 = 0.1000E+31(WHEN MIN. R.F.=1)  AT K=   0, I=   0, J=   0

 MAXIMUM STEPSIZE WHICH MEETS STABILITY CRITERION OF THE DISPERSION TERM
<<<<<<< Updated upstream
 = 0.6199E-02(WHEN MIN. R.F.=1)  AT K=   3, I=   2, J=  31


     1 CALLS TO GCG PACKAGE FOR TRANSPORT TIME STEP   1 IN FLOW TIME STEP  48 STRESS PERIOD   2
    15 TOTAL ITERATIONS

 NO OUTPUT CONTROL FOR STRESS PERIOD    2   TIME STEP  48
=======
 = 0.6703E-02(WHEN MIN. R.F.=1)  AT K=   3, I=   2, J=  30
     1 CALLS TO GCG PACKAGE FOR TRANSPORT TIME STEP   3 IN FLOW TIME STEP  42 STRESS PERIOD   2
    17 TOTAL ITERATIONS
0WARNING: NUMERICAL OSCILLATION ENCOUNTERED
 ONE OR MORE CELL CONCENTRATIONS LESS THAN CRHOREF
 SMALLEST DENSITY =  0.100E+04
 AT CELL (I,J,K) = (   3,  61,  27)

>>>>>>> Stashed changes
 
 SOLVING FOR HEAD 
 FLOW MODEL IS TRANSIENT
 FLOW MODEL CONTAINS CONSTANT-HEAD CELLS


 MAXIMUM STEPSIZE DURING WHICH ANY PARTICLE CANNOT MOVE MORE THAN ONE CELL
<<<<<<< Updated upstream
 = 0.1633    (WHEN MIN. R.F.=1)  AT K=   3, I=   2, J=  29

 MAXIMUM STEPSIZE WHICH MEETS STABILITY CRITERION OF THE ADVECTION TERM
 (FOR PURE FINITE-DIFFERENCE OPTION, MIXELM=0) 
 = 0.1133    (WHEN MIN. R.F.=1)  AT K=   3, I=   2, J=  28
=======
 = 0.1870    (WHEN MIN. R.F.=1)  AT K=   3, I=   2, J=  31

 MAXIMUM STEPSIZE WHICH MEETS STABILITY CRITERION OF THE ADVECTION TERM
 (FOR PURE FINITE-DIFFERENCE OPTION, MIXELM=0) 
 = 0.1249    (WHEN MIN. R.F.=1)  AT K=   3, I=   2, J=  30
>>>>>>> Stashed changes


 TOTAL NUMBER OF POINT SOURCES/SINKS PRESENT IN THE FLOW MODEL =   240

 MAXIMUM STEPSIZE WHICH MEETS STABILITY CRITERION OF THE SINK & SOURCE TERM
 = 0.1000E+31(WHEN MIN. R.F.=1)  AT K=   0, I=   0, J=   0

 MAXIMUM STEPSIZE WHICH MEETS STABILITY CRITERION OF THE DISPERSION TERM
<<<<<<< Updated upstream
 = 0.6199E-02(WHEN MIN. R.F.=1)  AT K=   3, I=   2, J=  31
     1 CALLS TO GCG PACKAGE FOR TRANSPORT TIME STEP   2 IN FLOW TIME STEP  48 STRESS PERIOD   2
    15 TOTAL ITERATIONS
=======
 = 0.6703E-02(WHEN MIN. R.F.=1)  AT K=   3, I=   2, J=  30
     1 CALLS TO GCG PACKAGE FOR TRANSPORT TIME STEP   4 IN FLOW TIME STEP  42 STRESS PERIOD   2
    17 TOTAL ITERATIONS
0WARNING: NUMERICAL OSCILLATION ENCOUNTERED
 ONE OR MORE CELL CONCENTRATIONS LESS THAN CRHOREF
 SMALLEST DENSITY =  0.100E+04
 AT CELL (I,J,K) = (   3,  61,  27)

>>>>>>> Stashed changes
 
 SOLVING FOR HEAD 
 FLOW MODEL IS TRANSIENT
 FLOW MODEL CONTAINS CONSTANT-HEAD CELLS


 MAXIMUM STEPSIZE DURING WHICH ANY PARTICLE CANNOT MOVE MORE THAN ONE CELL
<<<<<<< Updated upstream
 = 0.1633    (WHEN MIN. R.F.=1)  AT K=   3, I=   2, J=  29

 MAXIMUM STEPSIZE WHICH MEETS STABILITY CRITERION OF THE ADVECTION TERM
 (FOR PURE FINITE-DIFFERENCE OPTION, MIXELM=0) 
 = 0.1133    (WHEN MIN. R.F.=1)  AT K=   3, I=   2, J=  28
=======
 = 0.1870    (WHEN MIN. R.F.=1)  AT K=   3, I=   2, J=  31

 MAXIMUM STEPSIZE WHICH MEETS STABILITY CRITERION OF THE ADVECTION TERM
 (FOR PURE FINITE-DIFFERENCE OPTION, MIXELM=0) 
 = 0.1249    (WHEN MIN. R.F.=1)  AT K=   3, I=   2, J=  30
>>>>>>> Stashed changes


 TOTAL NUMBER OF POINT SOURCES/SINKS PRESENT IN THE FLOW MODEL =   240

 MAXIMUM STEPSIZE WHICH MEETS STABILITY CRITERION OF THE SINK & SOURCE TERM
 = 0.1000E+31(WHEN MIN. R.F.=1)  AT K=   0, I=   0, J=   0

 MAXIMUM STEPSIZE WHICH MEETS STABILITY CRITERION OF THE DISPERSION TERM
<<<<<<< Updated upstream
 = 0.6199E-02(WHEN MIN. R.F.=1)  AT K=   3, I=   2, J=  31
     1 CALLS TO GCG PACKAGE FOR TRANSPORT TIME STEP   3 IN FLOW TIME STEP  48 STRESS PERIOD   2
    15 TOTAL ITERATIONS
=======
 = 0.6703E-02(WHEN MIN. R.F.=1)  AT K=   3, I=   2, J=  30
     1 CALLS TO GCG PACKAGE FOR TRANSPORT TIME STEP   5 IN FLOW TIME STEP  42 STRESS PERIOD   2
    17 TOTAL ITERATIONS
0WARNING: NUMERICAL OSCILLATION ENCOUNTERED
 ONE OR MORE CELL CONCENTRATIONS LESS THAN CRHOREF
 SMALLEST DENSITY =  0.100E+04
 AT CELL (I,J,K) = (   3,  61,  27)

>>>>>>> Stashed changes
 
 SOLVING FOR HEAD 
 FLOW MODEL IS TRANSIENT
 FLOW MODEL CONTAINS CONSTANT-HEAD CELLS


 MAXIMUM STEPSIZE DURING WHICH ANY PARTICLE CANNOT MOVE MORE THAN ONE CELL
<<<<<<< Updated upstream
 = 0.1633    (WHEN MIN. R.F.=1)  AT K=   3, I=   2, J=  29

 MAXIMUM STEPSIZE WHICH MEETS STABILITY CRITERION OF THE ADVECTION TERM
 (FOR PURE FINITE-DIFFERENCE OPTION, MIXELM=0) 
 = 0.1133    (WHEN MIN. R.F.=1)  AT K=   3, I=   2, J=  28
=======
 = 0.1870    (WHEN MIN. R.F.=1)  AT K=   3, I=   2, J=  31

 MAXIMUM STEPSIZE WHICH MEETS STABILITY CRITERION OF THE ADVECTION TERM
 (FOR PURE FINITE-DIFFERENCE OPTION, MIXELM=0) 
 = 0.1249    (WHEN MIN. R.F.=1)  AT K=   3, I=   2, J=  30
>>>>>>> Stashed changes


 TOTAL NUMBER OF POINT SOURCES/SINKS PRESENT IN THE FLOW MODEL =   240

 MAXIMUM STEPSIZE WHICH MEETS STABILITY CRITERION OF THE SINK & SOURCE TERM
 = 0.1000E+31(WHEN MIN. R.F.=1)  AT K=   0, I=   0, J=   0

 MAXIMUM STEPSIZE WHICH MEETS STABILITY CRITERION OF THE DISPERSION TERM
<<<<<<< Updated upstream
 = 0.6199E-02(WHEN MIN. R.F.=1)  AT K=   3, I=   2, J=  31
     1 CALLS TO GCG PACKAGE FOR TRANSPORT TIME STEP   4 IN FLOW TIME STEP  48 STRESS PERIOD   2
    15 TOTAL ITERATIONS
=======
 = 0.6703E-02(WHEN MIN. R.F.=1)  AT K=   3, I=   2, J=  30
     1 CALLS TO GCG PACKAGE FOR TRANSPORT TIME STEP   6 IN FLOW TIME STEP  42 STRESS PERIOD   2
    17 TOTAL ITERATIONS
0WARNING: NUMERICAL OSCILLATION ENCOUNTERED
 ONE OR MORE CELL CONCENTRATIONS LESS THAN CRHOREF
 SMALLEST DENSITY =  0.100E+04
 AT CELL (I,J,K) = (   3,  61,  27)

>>>>>>> Stashed changes
 
 SOLVING FOR HEAD 
 FLOW MODEL IS TRANSIENT
 FLOW MODEL CONTAINS CONSTANT-HEAD CELLS


 MAXIMUM STEPSIZE DURING WHICH ANY PARTICLE CANNOT MOVE MORE THAN ONE CELL
<<<<<<< Updated upstream
 = 0.1633    (WHEN MIN. R.F.=1)  AT K=   3, I=   2, J=  29

 MAXIMUM STEPSIZE WHICH MEETS STABILITY CRITERION OF THE ADVECTION TERM
 (FOR PURE FINITE-DIFFERENCE OPTION, MIXELM=0) 
 = 0.1133    (WHEN MIN. R.F.=1)  AT K=   3, I=   2, J=  28
=======
 = 0.1870    (WHEN MIN. R.F.=1)  AT K=   3, I=   2, J=  31

 MAXIMUM STEPSIZE WHICH MEETS STABILITY CRITERION OF THE ADVECTION TERM
 (FOR PURE FINITE-DIFFERENCE OPTION, MIXELM=0) 
 = 0.1249    (WHEN MIN. R.F.=1)  AT K=   3, I=   2, J=  30
>>>>>>> Stashed changes


 TOTAL NUMBER OF POINT SOURCES/SINKS PRESENT IN THE FLOW MODEL =   240

 MAXIMUM STEPSIZE WHICH MEETS STABILITY CRITERION OF THE SINK & SOURCE TERM
 = 0.1000E+31(WHEN MIN. R.F.=1)  AT K=   0, I=   0, J=   0

 MAXIMUM STEPSIZE WHICH MEETS STABILITY CRITERION OF THE DISPERSION TERM
<<<<<<< Updated upstream
 = 0.6199E-02(WHEN MIN. R.F.=1)  AT K=   3, I=   2, J=  31
     1 CALLS TO GCG PACKAGE FOR TRANSPORT TIME STEP   5 IN FLOW TIME STEP  48 STRESS PERIOD   2
    15 TOTAL ITERATIONS
=======
 = 0.6703E-02(WHEN MIN. R.F.=1)  AT K=   3, I=   2, J=  30
     1 CALLS TO GCG PACKAGE FOR TRANSPORT TIME STEP   7 IN FLOW TIME STEP  42 STRESS PERIOD   2
    17 TOTAL ITERATIONS
0WARNING: NUMERICAL OSCILLATION ENCOUNTERED
 ONE OR MORE CELL CONCENTRATIONS LESS THAN CRHOREF
 SMALLEST DENSITY =  0.100E+04
 AT CELL (I,J,K) = (   3,  61,  27)

>>>>>>> Stashed changes
 
 SOLVING FOR HEAD 
 FLOW MODEL IS TRANSIENT
 FLOW MODEL CONTAINS CONSTANT-HEAD CELLS


 MAXIMUM STEPSIZE DURING WHICH ANY PARTICLE CANNOT MOVE MORE THAN ONE CELL
<<<<<<< Updated upstream
 = 0.1633    (WHEN MIN. R.F.=1)  AT K=   3, I=   2, J=  29

 MAXIMUM STEPSIZE WHICH MEETS STABILITY CRITERION OF THE ADVECTION TERM
 (FOR PURE FINITE-DIFFERENCE OPTION, MIXELM=0) 
 = 0.1133    (WHEN MIN. R.F.=1)  AT K=   3, I=   2, J=  28
=======
 = 0.1870    (WHEN MIN. R.F.=1)  AT K=   3, I=   2, J=  31

 MAXIMUM STEPSIZE WHICH MEETS STABILITY CRITERION OF THE ADVECTION TERM
 (FOR PURE FINITE-DIFFERENCE OPTION, MIXELM=0) 
 = 0.1249    (WHEN MIN. R.F.=1)  AT K=   3, I=   2, J=  30
>>>>>>> Stashed changes


 TOTAL NUMBER OF POINT SOURCES/SINKS PRESENT IN THE FLOW MODEL =   240

 MAXIMUM STEPSIZE WHICH MEETS STABILITY CRITERION OF THE SINK & SOURCE TERM
 = 0.1000E+31(WHEN MIN. R.F.=1)  AT K=   0, I=   0, J=   0

 MAXIMUM STEPSIZE WHICH MEETS STABILITY CRITERION OF THE DISPERSION TERM
<<<<<<< Updated upstream
 = 0.6199E-02(WHEN MIN. R.F.=1)  AT K=   3, I=   2, J=  31
     1 CALLS TO GCG PACKAGE FOR TRANSPORT TIME STEP   6 IN FLOW TIME STEP  48 STRESS PERIOD   2
    15 TOTAL ITERATIONS
=======
 = 0.6703E-02(WHEN MIN. R.F.=1)  AT K=   3, I=   2, J=  30
     1 CALLS TO GCG PACKAGE FOR TRANSPORT TIME STEP   8 IN FLOW TIME STEP  42 STRESS PERIOD   2
     6 TOTAL ITERATIONS
  MAXIMUM CONCENTRATION CHANGES FOR EACH ITERATION:
  MAX. CHANGE LAYER,ROW,COL MAX. CHANGE LAYER,ROW,COL MAX. CHANGE LAYER,ROW,COL MAX. CHANGE LAYER,ROW,COL MAX. CHANGE LAYER,ROW,COL
 ------------------------------------------------------------------------------------------------------------------------------------
   0.1814E-03 ( 14,  3, 46)  0.9107E-05 (  5,  2, 59)  0.2132E-05 (  4,  2, 44)  0.7849E-06 (  3,  2, 37)  0.2029E-06 (  4,  2, 37)
   0.7013E-07 (  3,  1, 31)
 UBDSV1 SAVING "         STORAGE" ON UNIT  53 AT TIME STEP 42, STRESS PERIOD   2
 UBDSV2 SAVING "   CONSTANT HEAD" ON UNIT  53 AT TIME STEP 42, STRESS PERIOD   2
 UBDSV1 SAVING "FLOW RIGHT FACE " ON UNIT  53 AT TIME STEP 42, STRESS PERIOD   2
 UBDSV1 SAVING "FLOW FRONT FACE " ON UNIT  53 AT TIME STEP 42, STRESS PERIOD   2
 UBDSV1 SAVING "FLOW LOWER FACE " ON UNIT  53 AT TIME STEP 42, STRESS PERIOD   2
 UBDSV1 SAVING "            DCDT" ON UNIT  53 AT TIME STEP 42, STRESS PERIOD   2
0WARNING: NUMERICAL OSCILLATION ENCOUNTERED
 ONE OR MORE CELL CONCENTRATIONS LESS THAN CRHOREF
 SMALLEST DENSITY =  0.100E+04
 AT CELL (I,J,K) = (   3,  61,  27)


 HEAD WILL BE SAVED ON UNIT   51 AT END OF TIME STEP  42, STRESS PERIOD    2


                                          ================================================
                                                         FROM TIME =   43.000     TO    44.000    

>>>>>>> Stashed changes
 
 SOLVING FOR HEAD 
 FLOW MODEL IS TRANSIENT
 FLOW MODEL CONTAINS CONSTANT-HEAD CELLS


 MAXIMUM STEPSIZE DURING WHICH ANY PARTICLE CANNOT MOVE MORE THAN ONE CELL
<<<<<<< Updated upstream
 = 0.1633    (WHEN MIN. R.F.=1)  AT K=   3, I=   2, J=  29

 MAXIMUM STEPSIZE WHICH MEETS STABILITY CRITERION OF THE ADVECTION TERM
 (FOR PURE FINITE-DIFFERENCE OPTION, MIXELM=0) 
 = 0.1133    (WHEN MIN. R.F.=1)  AT K=   3, I=   2, J=  28
=======
 = 0.1870    (WHEN MIN. R.F.=1)  AT K=   3, I=   2, J=  31

 MAXIMUM STEPSIZE WHICH MEETS STABILITY CRITERION OF THE ADVECTION TERM
 (FOR PURE FINITE-DIFFERENCE OPTION, MIXELM=0) 
 = 0.1249    (WHEN MIN. R.F.=1)  AT K=   3, I=   2, J=  30
>>>>>>> Stashed changes


 TOTAL NUMBER OF POINT SOURCES/SINKS PRESENT IN THE FLOW MODEL =   240

 MAXIMUM STEPSIZE WHICH MEETS STABILITY CRITERION OF THE SINK & SOURCE TERM
 = 0.1000E+31(WHEN MIN. R.F.=1)  AT K=   0, I=   0, J=   0

 MAXIMUM STEPSIZE WHICH MEETS STABILITY CRITERION OF THE DISPERSION TERM
<<<<<<< Updated upstream
 = 0.6199E-02(WHEN MIN. R.F.=1)  AT K=   3, I=   2, J=  31
     1 CALLS TO GCG PACKAGE FOR TRANSPORT TIME STEP   7 IN FLOW TIME STEP  48 STRESS PERIOD   2
    15 TOTAL ITERATIONS
=======
 = 0.6703E-02(WHEN MIN. R.F.=1)  AT K=   3, I=   2, J=  30


     1 CALLS TO GCG PACKAGE FOR TRANSPORT TIME STEP   1 IN FLOW TIME STEP  43 STRESS PERIOD   2
    17 TOTAL ITERATIONS

 OUTPUT CONTROL FOR STRESS PERIOD    2   TIME STEP  43
    SAVE HEAD FOR ALL LAYERS
    SAVE BUDGET
0WARNING: NUMERICAL OSCILLATION ENCOUNTERED
 ONE OR MORE CELL CONCENTRATIONS LESS THAN CRHOREF
 SMALLEST DENSITY =  0.100E+04
 AT CELL (I,J,K) = (   3,  61,  27)

>>>>>>> Stashed changes
 
 SOLVING FOR HEAD 
 FLOW MODEL IS TRANSIENT
 FLOW MODEL CONTAINS CONSTANT-HEAD CELLS


 MAXIMUM STEPSIZE DURING WHICH ANY PARTICLE CANNOT MOVE MORE THAN ONE CELL
<<<<<<< Updated upstream
 = 0.1633    (WHEN MIN. R.F.=1)  AT K=   3, I=   2, J=  29

 MAXIMUM STEPSIZE WHICH MEETS STABILITY CRITERION OF THE ADVECTION TERM
 (FOR PURE FINITE-DIFFERENCE OPTION, MIXELM=0) 
 = 0.1133    (WHEN MIN. R.F.=1)  AT K=   3, I=   2, J=  28
=======
 = 0.1870    (WHEN MIN. R.F.=1)  AT K=   3, I=   2, J=  31

 MAXIMUM STEPSIZE WHICH MEETS STABILITY CRITERION OF THE ADVECTION TERM
 (FOR PURE FINITE-DIFFERENCE OPTION, MIXELM=0) 
 = 0.1249    (WHEN MIN. R.F.=1)  AT K=   3, I=   2, J=  30
>>>>>>> Stashed changes


 TOTAL NUMBER OF POINT SOURCES/SINKS PRESENT IN THE FLOW MODEL =   240

 MAXIMUM STEPSIZE WHICH MEETS STABILITY CRITERION OF THE SINK & SOURCE TERM
 = 0.1000E+31(WHEN MIN. R.F.=1)  AT K=   0, I=   0, J=   0

 MAXIMUM STEPSIZE WHICH MEETS STABILITY CRITERION OF THE DISPERSION TERM
<<<<<<< Updated upstream
 = 0.6199E-02(WHEN MIN. R.F.=1)  AT K=   3, I=   2, J=  31
     1 CALLS TO GCG PACKAGE FOR TRANSPORT TIME STEP   8 IN FLOW TIME STEP  48 STRESS PERIOD   2
    15 TOTAL ITERATIONS
=======
 = 0.6703E-02(WHEN MIN. R.F.=1)  AT K=   3, I=   2, J=  30
     1 CALLS TO GCG PACKAGE FOR TRANSPORT TIME STEP   2 IN FLOW TIME STEP  43 STRESS PERIOD   2
    17 TOTAL ITERATIONS
0WARNING: NUMERICAL OSCILLATION ENCOUNTERED
 ONE OR MORE CELL CONCENTRATIONS LESS THAN CRHOREF
 SMALLEST DENSITY =  0.100E+04
 AT CELL (I,J,K) = (   3,  61,  27)

>>>>>>> Stashed changes
 
 SOLVING FOR HEAD 
 FLOW MODEL IS TRANSIENT
 FLOW MODEL CONTAINS CONSTANT-HEAD CELLS


 MAXIMUM STEPSIZE DURING WHICH ANY PARTICLE CANNOT MOVE MORE THAN ONE CELL
<<<<<<< Updated upstream
 = 0.1633    (WHEN MIN. R.F.=1)  AT K=   3, I=   2, J=  29

 MAXIMUM STEPSIZE WHICH MEETS STABILITY CRITERION OF THE ADVECTION TERM
 (FOR PURE FINITE-DIFFERENCE OPTION, MIXELM=0) 
 = 0.1133    (WHEN MIN. R.F.=1)  AT K=   3, I=   2, J=  28
=======
 = 0.1870    (WHEN MIN. R.F.=1)  AT K=   3, I=   2, J=  31

 MAXIMUM STEPSIZE WHICH MEETS STABILITY CRITERION OF THE ADVECTION TERM
 (FOR PURE FINITE-DIFFERENCE OPTION, MIXELM=0) 
 = 0.1249    (WHEN MIN. R.F.=1)  AT K=   3, I=   2, J=  30
>>>>>>> Stashed changes


 TOTAL NUMBER OF POINT SOURCES/SINKS PRESENT IN THE FLOW MODEL =   240

 MAXIMUM STEPSIZE WHICH MEETS STABILITY CRITERION OF THE SINK & SOURCE TERM
 = 0.1000E+31(WHEN MIN. R.F.=1)  AT K=   0, I=   0, J=   0

 MAXIMUM STEPSIZE WHICH MEETS STABILITY CRITERION OF THE DISPERSION TERM
<<<<<<< Updated upstream
 = 0.6199E-02(WHEN MIN. R.F.=1)  AT K=   3, I=   2, J=  31
     1 CALLS TO GCG PACKAGE FOR TRANSPORT TIME STEP   9 IN FLOW TIME STEP  48 STRESS PERIOD   2
     7 TOTAL ITERATIONS
  MAXIMUM CONCENTRATION CHANGES FOR EACH ITERATION:
  MAX. CHANGE LAYER,ROW,COL MAX. CHANGE LAYER,ROW,COL MAX. CHANGE LAYER,ROW,COL MAX. CHANGE LAYER,ROW,COL MAX. CHANGE LAYER,ROW,COL
 ------------------------------------------------------------------------------------------------------------------------------------
   0.1815E-03 ( 13,  3, 53)  0.1122E-04 (  5,  2, 63)  0.2308E-05 (  6,  1, 56)  0.6891E-06 (  3,  3, 31)  0.3064E-06 (  3,  3, 30)
   0.1213E-06 (  3,  3, 31)  0.4138E-07 (  3,  3, 30)


                                          ================================================
                                                         FROM TIME =   49.000     TO    50.000    
=======
 = 0.6703E-02(WHEN MIN. R.F.=1)  AT K=   3, I=   2, J=  30
     1 CALLS TO GCG PACKAGE FOR TRANSPORT TIME STEP   3 IN FLOW TIME STEP  43 STRESS PERIOD   2
    17 TOTAL ITERATIONS
0WARNING: NUMERICAL OSCILLATION ENCOUNTERED
 ONE OR MORE CELL CONCENTRATIONS LESS THAN CRHOREF
 SMALLEST DENSITY =  0.100E+04
 AT CELL (I,J,K) = (   3,  61,  27)
>>>>>>> Stashed changes

 
 SOLVING FOR HEAD 
 FLOW MODEL IS TRANSIENT
 FLOW MODEL CONTAINS CONSTANT-HEAD CELLS


 MAXIMUM STEPSIZE DURING WHICH ANY PARTICLE CANNOT MOVE MORE THAN ONE CELL
<<<<<<< Updated upstream
 = 0.1633    (WHEN MIN. R.F.=1)  AT K=   3, I=   2, J=  29

 MAXIMUM STEPSIZE WHICH MEETS STABILITY CRITERION OF THE ADVECTION TERM
 (FOR PURE FINITE-DIFFERENCE OPTION, MIXELM=0) 
 = 0.1133    (WHEN MIN. R.F.=1)  AT K=   3, I=   2, J=  28
=======
 = 0.1870    (WHEN MIN. R.F.=1)  AT K=   3, I=   2, J=  31

 MAXIMUM STEPSIZE WHICH MEETS STABILITY CRITERION OF THE ADVECTION TERM
 (FOR PURE FINITE-DIFFERENCE OPTION, MIXELM=0) 
 = 0.1249    (WHEN MIN. R.F.=1)  AT K=   3, I=   2, J=  30
>>>>>>> Stashed changes


 TOTAL NUMBER OF POINT SOURCES/SINKS PRESENT IN THE FLOW MODEL =   240

 MAXIMUM STEPSIZE WHICH MEETS STABILITY CRITERION OF THE SINK & SOURCE TERM
 = 0.1000E+31(WHEN MIN. R.F.=1)  AT K=   0, I=   0, J=   0

 MAXIMUM STEPSIZE WHICH MEETS STABILITY CRITERION OF THE DISPERSION TERM
<<<<<<< Updated upstream
 = 0.6199E-02(WHEN MIN. R.F.=1)  AT K=   3, I=   2, J=  31


     1 CALLS TO GCG PACKAGE FOR TRANSPORT TIME STEP   1 IN FLOW TIME STEP  49 STRESS PERIOD   2
    15 TOTAL ITERATIONS

 NO OUTPUT CONTROL FOR STRESS PERIOD    2   TIME STEP  49
=======
 = 0.6703E-02(WHEN MIN. R.F.=1)  AT K=   3, I=   2, J=  30
     1 CALLS TO GCG PACKAGE FOR TRANSPORT TIME STEP   4 IN FLOW TIME STEP  43 STRESS PERIOD   2
    17 TOTAL ITERATIONS
0WARNING: NUMERICAL OSCILLATION ENCOUNTERED
 ONE OR MORE CELL CONCENTRATIONS LESS THAN CRHOREF
 SMALLEST DENSITY =  0.100E+04
 AT CELL (I,J,K) = (   3,  61,  27)

>>>>>>> Stashed changes
 
 SOLVING FOR HEAD 
 FLOW MODEL IS TRANSIENT
 FLOW MODEL CONTAINS CONSTANT-HEAD CELLS


 MAXIMUM STEPSIZE DURING WHICH ANY PARTICLE CANNOT MOVE MORE THAN ONE CELL
<<<<<<< Updated upstream
 = 0.1633    (WHEN MIN. R.F.=1)  AT K=   3, I=   2, J=  29

 MAXIMUM STEPSIZE WHICH MEETS STABILITY CRITERION OF THE ADVECTION TERM
 (FOR PURE FINITE-DIFFERENCE OPTION, MIXELM=0) 
 = 0.1133    (WHEN MIN. R.F.=1)  AT K=   3, I=   2, J=  28
=======
 = 0.1870    (WHEN MIN. R.F.=1)  AT K=   3, I=   2, J=  31

 MAXIMUM STEPSIZE WHICH MEETS STABILITY CRITERION OF THE ADVECTION TERM
 (FOR PURE FINITE-DIFFERENCE OPTION, MIXELM=0) 
 = 0.1249    (WHEN MIN. R.F.=1)  AT K=   3, I=   2, J=  30
>>>>>>> Stashed changes


 TOTAL NUMBER OF POINT SOURCES/SINKS PRESENT IN THE FLOW MODEL =   240

 MAXIMUM STEPSIZE WHICH MEETS STABILITY CRITERION OF THE SINK & SOURCE TERM
 = 0.1000E+31(WHEN MIN. R.F.=1)  AT K=   0, I=   0, J=   0

 MAXIMUM STEPSIZE WHICH MEETS STABILITY CRITERION OF THE DISPERSION TERM
<<<<<<< Updated upstream
 = 0.6199E-02(WHEN MIN. R.F.=1)  AT K=   3, I=   2, J=  31
     1 CALLS TO GCG PACKAGE FOR TRANSPORT TIME STEP   2 IN FLOW TIME STEP  49 STRESS PERIOD   2
    15 TOTAL ITERATIONS
=======
 = 0.6703E-02(WHEN MIN. R.F.=1)  AT K=   3, I=   2, J=  30
     1 CALLS TO GCG PACKAGE FOR TRANSPORT TIME STEP   5 IN FLOW TIME STEP  43 STRESS PERIOD   2
    17 TOTAL ITERATIONS
0WARNING: NUMERICAL OSCILLATION ENCOUNTERED
 ONE OR MORE CELL CONCENTRATIONS LESS THAN CRHOREF
 SMALLEST DENSITY =  0.100E+04
 AT CELL (I,J,K) = (   3,  61,  27)

>>>>>>> Stashed changes
 
 SOLVING FOR HEAD 
 FLOW MODEL IS TRANSIENT
 FLOW MODEL CONTAINS CONSTANT-HEAD CELLS


 MAXIMUM STEPSIZE DURING WHICH ANY PARTICLE CANNOT MOVE MORE THAN ONE CELL
<<<<<<< Updated upstream
 = 0.1633    (WHEN MIN. R.F.=1)  AT K=   3, I=   2, J=  29

 MAXIMUM STEPSIZE WHICH MEETS STABILITY CRITERION OF THE ADVECTION TERM
 (FOR PURE FINITE-DIFFERENCE OPTION, MIXELM=0) 
 = 0.1133    (WHEN MIN. R.F.=1)  AT K=   3, I=   2, J=  28
=======
 = 0.1870    (WHEN MIN. R.F.=1)  AT K=   3, I=   2, J=  31

 MAXIMUM STEPSIZE WHICH MEETS STABILITY CRITERION OF THE ADVECTION TERM
 (FOR PURE FINITE-DIFFERENCE OPTION, MIXELM=0) 
 = 0.1249    (WHEN MIN. R.F.=1)  AT K=   3, I=   2, J=  30
>>>>>>> Stashed changes


 TOTAL NUMBER OF POINT SOURCES/SINKS PRESENT IN THE FLOW MODEL =   240

 MAXIMUM STEPSIZE WHICH MEETS STABILITY CRITERION OF THE SINK & SOURCE TERM
 = 0.1000E+31(WHEN MIN. R.F.=1)  AT K=   0, I=   0, J=   0

 MAXIMUM STEPSIZE WHICH MEETS STABILITY CRITERION OF THE DISPERSION TERM
<<<<<<< Updated upstream
 = 0.6199E-02(WHEN MIN. R.F.=1)  AT K=   3, I=   2, J=  31
     1 CALLS TO GCG PACKAGE FOR TRANSPORT TIME STEP   3 IN FLOW TIME STEP  49 STRESS PERIOD   2
    15 TOTAL ITERATIONS
=======
 = 0.6703E-02(WHEN MIN. R.F.=1)  AT K=   3, I=   2, J=  30
     1 CALLS TO GCG PACKAGE FOR TRANSPORT TIME STEP   6 IN FLOW TIME STEP  43 STRESS PERIOD   2
    17 TOTAL ITERATIONS
0WARNING: NUMERICAL OSCILLATION ENCOUNTERED
 ONE OR MORE CELL CONCENTRATIONS LESS THAN CRHOREF
 SMALLEST DENSITY =  0.100E+04
 AT CELL (I,J,K) = (   2,  60,  27)

>>>>>>> Stashed changes
 
 SOLVING FOR HEAD 
 FLOW MODEL IS TRANSIENT
 FLOW MODEL CONTAINS CONSTANT-HEAD CELLS


 MAXIMUM STEPSIZE DURING WHICH ANY PARTICLE CANNOT MOVE MORE THAN ONE CELL
<<<<<<< Updated upstream
 = 0.1633    (WHEN MIN. R.F.=1)  AT K=   3, I=   2, J=  29

 MAXIMUM STEPSIZE WHICH MEETS STABILITY CRITERION OF THE ADVECTION TERM
 (FOR PURE FINITE-DIFFERENCE OPTION, MIXELM=0) 
 = 0.1133    (WHEN MIN. R.F.=1)  AT K=   3, I=   2, J=  28
=======
 = 0.1870    (WHEN MIN. R.F.=1)  AT K=   3, I=   2, J=  31

 MAXIMUM STEPSIZE WHICH MEETS STABILITY CRITERION OF THE ADVECTION TERM
 (FOR PURE FINITE-DIFFERENCE OPTION, MIXELM=0) 
 = 0.1249    (WHEN MIN. R.F.=1)  AT K=   3, I=   2, J=  30
>>>>>>> Stashed changes


 TOTAL NUMBER OF POINT SOURCES/SINKS PRESENT IN THE FLOW MODEL =   240

 MAXIMUM STEPSIZE WHICH MEETS STABILITY CRITERION OF THE SINK & SOURCE TERM
 = 0.1000E+31(WHEN MIN. R.F.=1)  AT K=   0, I=   0, J=   0

 MAXIMUM STEPSIZE WHICH MEETS STABILITY CRITERION OF THE DISPERSION TERM
<<<<<<< Updated upstream
 = 0.6199E-02(WHEN MIN. R.F.=1)  AT K=   3, I=   2, J=  31
     1 CALLS TO GCG PACKAGE FOR TRANSPORT TIME STEP   4 IN FLOW TIME STEP  49 STRESS PERIOD   2
    15 TOTAL ITERATIONS
=======
 = 0.6702E-02(WHEN MIN. R.F.=1)  AT K=   3, I=   2, J=  30
     1 CALLS TO GCG PACKAGE FOR TRANSPORT TIME STEP   7 IN FLOW TIME STEP  43 STRESS PERIOD   2
    17 TOTAL ITERATIONS
0WARNING: NUMERICAL OSCILLATION ENCOUNTERED
 ONE OR MORE CELL CONCENTRATIONS LESS THAN CRHOREF
 SMALLEST DENSITY =  0.100E+04
 AT CELL (I,J,K) = (   3,  60,  28)

>>>>>>> Stashed changes
 
 SOLVING FOR HEAD 
 FLOW MODEL IS TRANSIENT
 FLOW MODEL CONTAINS CONSTANT-HEAD CELLS


 MAXIMUM STEPSIZE DURING WHICH ANY PARTICLE CANNOT MOVE MORE THAN ONE CELL
<<<<<<< Updated upstream
 = 0.1633    (WHEN MIN. R.F.=1)  AT K=   3, I=   2, J=  29

 MAXIMUM STEPSIZE WHICH MEETS STABILITY CRITERION OF THE ADVECTION TERM
 (FOR PURE FINITE-DIFFERENCE OPTION, MIXELM=0) 
 = 0.1133    (WHEN MIN. R.F.=1)  AT K=   3, I=   2, J=  28
=======
 = 0.1870    (WHEN MIN. R.F.=1)  AT K=   3, I=   2, J=  31

 MAXIMUM STEPSIZE WHICH MEETS STABILITY CRITERION OF THE ADVECTION TERM
 (FOR PURE FINITE-DIFFERENCE OPTION, MIXELM=0) 
 = 0.1249    (WHEN MIN. R.F.=1)  AT K=   3, I=   2, J=  30
>>>>>>> Stashed changes


 TOTAL NUMBER OF POINT SOURCES/SINKS PRESENT IN THE FLOW MODEL =   240

 MAXIMUM STEPSIZE WHICH MEETS STABILITY CRITERION OF THE SINK & SOURCE TERM
 = 0.1000E+31(WHEN MIN. R.F.=1)  AT K=   0, I=   0, J=   0

 MAXIMUM STEPSIZE WHICH MEETS STABILITY CRITERION OF THE DISPERSION TERM
<<<<<<< Updated upstream
 = 0.6199E-02(WHEN MIN. R.F.=1)  AT K=   3, I=   2, J=  31
     1 CALLS TO GCG PACKAGE FOR TRANSPORT TIME STEP   5 IN FLOW TIME STEP  49 STRESS PERIOD   2
    15 TOTAL ITERATIONS
=======
 = 0.6702E-02(WHEN MIN. R.F.=1)  AT K=   3, I=   2, J=  30
     1 CALLS TO GCG PACKAGE FOR TRANSPORT TIME STEP   8 IN FLOW TIME STEP  43 STRESS PERIOD   2
     6 TOTAL ITERATIONS
  MAXIMUM CONCENTRATION CHANGES FOR EACH ITERATION:
  MAX. CHANGE LAYER,ROW,COL MAX. CHANGE LAYER,ROW,COL MAX. CHANGE LAYER,ROW,COL MAX. CHANGE LAYER,ROW,COL MAX. CHANGE LAYER,ROW,COL
 ------------------------------------------------------------------------------------------------------------------------------------
   0.1785E-03 ( 14,  3, 46)  0.8740E-05 (  5,  2, 59)  0.2036E-05 (  4,  2, 44)  0.7504E-06 (  3,  2, 37)  0.1945E-06 (  4,  2, 37)
   0.6721E-07 (  3,  1, 31)
 UBDSV1 SAVING "         STORAGE" ON UNIT  53 AT TIME STEP 43, STRESS PERIOD   2
 UBDSV2 SAVING "   CONSTANT HEAD" ON UNIT  53 AT TIME STEP 43, STRESS PERIOD   2
 UBDSV1 SAVING "FLOW RIGHT FACE " ON UNIT  53 AT TIME STEP 43, STRESS PERIOD   2
 UBDSV1 SAVING "FLOW FRONT FACE " ON UNIT  53 AT TIME STEP 43, STRESS PERIOD   2
 UBDSV1 SAVING "FLOW LOWER FACE " ON UNIT  53 AT TIME STEP 43, STRESS PERIOD   2
 UBDSV1 SAVING "            DCDT" ON UNIT  53 AT TIME STEP 43, STRESS PERIOD   2
0WARNING: NUMERICAL OSCILLATION ENCOUNTERED
 ONE OR MORE CELL CONCENTRATIONS LESS THAN CRHOREF
 SMALLEST DENSITY =  0.100E+04
 AT CELL (I,J,K) = (   3,  60,  28)


 HEAD WILL BE SAVED ON UNIT   51 AT END OF TIME STEP  43, STRESS PERIOD    2


                                          ================================================
                                                         FROM TIME =   44.000     TO    45.000    

>>>>>>> Stashed changes
 
 SOLVING FOR HEAD 
 FLOW MODEL IS TRANSIENT
 FLOW MODEL CONTAINS CONSTANT-HEAD CELLS


 MAXIMUM STEPSIZE DURING WHICH ANY PARTICLE CANNOT MOVE MORE THAN ONE CELL
<<<<<<< Updated upstream
 = 0.1633    (WHEN MIN. R.F.=1)  AT K=   3, I=   2, J=  29

 MAXIMUM STEPSIZE WHICH MEETS STABILITY CRITERION OF THE ADVECTION TERM
 (FOR PURE FINITE-DIFFERENCE OPTION, MIXELM=0) 
 = 0.1133    (WHEN MIN. R.F.=1)  AT K=   3, I=   2, J=  28
=======
 = 0.1870    (WHEN MIN. R.F.=1)  AT K=   3, I=   2, J=  31

 MAXIMUM STEPSIZE WHICH MEETS STABILITY CRITERION OF THE ADVECTION TERM
 (FOR PURE FINITE-DIFFERENCE OPTION, MIXELM=0) 
 = 0.1249    (WHEN MIN. R.F.=1)  AT K=   3, I=   2, J=  30
>>>>>>> Stashed changes


 TOTAL NUMBER OF POINT SOURCES/SINKS PRESENT IN THE FLOW MODEL =   240

 MAXIMUM STEPSIZE WHICH MEETS STABILITY CRITERION OF THE SINK & SOURCE TERM
 = 0.1000E+31(WHEN MIN. R.F.=1)  AT K=   0, I=   0, J=   0

 MAXIMUM STEPSIZE WHICH MEETS STABILITY CRITERION OF THE DISPERSION TERM
<<<<<<< Updated upstream
 = 0.6199E-02(WHEN MIN. R.F.=1)  AT K=   3, I=   2, J=  31
     1 CALLS TO GCG PACKAGE FOR TRANSPORT TIME STEP   6 IN FLOW TIME STEP  49 STRESS PERIOD   2
    15 TOTAL ITERATIONS
=======
 = 0.6702E-02(WHEN MIN. R.F.=1)  AT K=   3, I=   2, J=  30


     1 CALLS TO GCG PACKAGE FOR TRANSPORT TIME STEP   1 IN FLOW TIME STEP  44 STRESS PERIOD   2
    17 TOTAL ITERATIONS

 OUTPUT CONTROL FOR STRESS PERIOD    2   TIME STEP  44
    SAVE HEAD FOR ALL LAYERS
    SAVE BUDGET
0WARNING: NUMERICAL OSCILLATION ENCOUNTERED
 ONE OR MORE CELL CONCENTRATIONS LESS THAN CRHOREF
 SMALLEST DENSITY =  0.100E+04
 AT CELL (I,J,K) = (   3,  60,  28)

>>>>>>> Stashed changes
 
 SOLVING FOR HEAD 
 FLOW MODEL IS TRANSIENT
 FLOW MODEL CONTAINS CONSTANT-HEAD CELLS


 MAXIMUM STEPSIZE DURING WHICH ANY PARTICLE CANNOT MOVE MORE THAN ONE CELL
<<<<<<< Updated upstream
 = 0.1633    (WHEN MIN. R.F.=1)  AT K=   3, I=   2, J=  29

 MAXIMUM STEPSIZE WHICH MEETS STABILITY CRITERION OF THE ADVECTION TERM
 (FOR PURE FINITE-DIFFERENCE OPTION, MIXELM=0) 
 = 0.1133    (WHEN MIN. R.F.=1)  AT K=   3, I=   2, J=  28
=======
 = 0.1870    (WHEN MIN. R.F.=1)  AT K=   3, I=   2, J=  31

 MAXIMUM STEPSIZE WHICH MEETS STABILITY CRITERION OF THE ADVECTION TERM
 (FOR PURE FINITE-DIFFERENCE OPTION, MIXELM=0) 
 = 0.1249    (WHEN MIN. R.F.=1)  AT K=   3, I=   2, J=  30
>>>>>>> Stashed changes


 TOTAL NUMBER OF POINT SOURCES/SINKS PRESENT IN THE FLOW MODEL =   240

 MAXIMUM STEPSIZE WHICH MEETS STABILITY CRITERION OF THE SINK & SOURCE TERM
 = 0.1000E+31(WHEN MIN. R.F.=1)  AT K=   0, I=   0, J=   0

 MAXIMUM STEPSIZE WHICH MEETS STABILITY CRITERION OF THE DISPERSION TERM
<<<<<<< Updated upstream
 = 0.6199E-02(WHEN MIN. R.F.=1)  AT K=   3, I=   2, J=  31
     1 CALLS TO GCG PACKAGE FOR TRANSPORT TIME STEP   7 IN FLOW TIME STEP  49 STRESS PERIOD   2
    15 TOTAL ITERATIONS
=======
 = 0.6702E-02(WHEN MIN. R.F.=1)  AT K=   3, I=   2, J=  30
     1 CALLS TO GCG PACKAGE FOR TRANSPORT TIME STEP   2 IN FLOW TIME STEP  44 STRESS PERIOD   2
    17 TOTAL ITERATIONS
0WARNING: NUMERICAL OSCILLATION ENCOUNTERED
 ONE OR MORE CELL CONCENTRATIONS LESS THAN CRHOREF
 SMALLEST DENSITY =  0.100E+04
 AT CELL (I,J,K) = (   3,  60,  28)

>>>>>>> Stashed changes
 
 SOLVING FOR HEAD 
 FLOW MODEL IS TRANSIENT
 FLOW MODEL CONTAINS CONSTANT-HEAD CELLS


 MAXIMUM STEPSIZE DURING WHICH ANY PARTICLE CANNOT MOVE MORE THAN ONE CELL
<<<<<<< Updated upstream
 = 0.1633    (WHEN MIN. R.F.=1)  AT K=   3, I=   2, J=  29

 MAXIMUM STEPSIZE WHICH MEETS STABILITY CRITERION OF THE ADVECTION TERM
 (FOR PURE FINITE-DIFFERENCE OPTION, MIXELM=0) 
 = 0.1133    (WHEN MIN. R.F.=1)  AT K=   3, I=   2, J=  28
=======
 = 0.1870    (WHEN MIN. R.F.=1)  AT K=   3, I=   2, J=  31

 MAXIMUM STEPSIZE WHICH MEETS STABILITY CRITERION OF THE ADVECTION TERM
 (FOR PURE FINITE-DIFFERENCE OPTION, MIXELM=0) 
 = 0.1249    (WHEN MIN. R.F.=1)  AT K=   3, I=   2, J=  30
>>>>>>> Stashed changes


 TOTAL NUMBER OF POINT SOURCES/SINKS PRESENT IN THE FLOW MODEL =   240

 MAXIMUM STEPSIZE WHICH MEETS STABILITY CRITERION OF THE SINK & SOURCE TERM
 = 0.1000E+31(WHEN MIN. R.F.=1)  AT K=   0, I=   0, J=   0

 MAXIMUM STEPSIZE WHICH MEETS STABILITY CRITERION OF THE DISPERSION TERM
<<<<<<< Updated upstream
 = 0.6199E-02(WHEN MIN. R.F.=1)  AT K=   3, I=   2, J=  31
     1 CALLS TO GCG PACKAGE FOR TRANSPORT TIME STEP   8 IN FLOW TIME STEP  49 STRESS PERIOD   2
    15 TOTAL ITERATIONS
=======
 = 0.6702E-02(WHEN MIN. R.F.=1)  AT K=   3, I=   2, J=  30
     1 CALLS TO GCG PACKAGE FOR TRANSPORT TIME STEP   3 IN FLOW TIME STEP  44 STRESS PERIOD   2
    17 TOTAL ITERATIONS
0WARNING: NUMERICAL OSCILLATION ENCOUNTERED
 ONE OR MORE CELL CONCENTRATIONS LESS THAN CRHOREF
 SMALLEST DENSITY =  0.100E+04
 AT CELL (I,J,K) = (   3,  60,  28)

>>>>>>> Stashed changes
 
 SOLVING FOR HEAD 
 FLOW MODEL IS TRANSIENT
 FLOW MODEL CONTAINS CONSTANT-HEAD CELLS


 MAXIMUM STEPSIZE DURING WHICH ANY PARTICLE CANNOT MOVE MORE THAN ONE CELL
<<<<<<< Updated upstream
 = 0.1633    (WHEN MIN. R.F.=1)  AT K=   3, I=   2, J=  29

 MAXIMUM STEPSIZE WHICH MEETS STABILITY CRITERION OF THE ADVECTION TERM
 (FOR PURE FINITE-DIFFERENCE OPTION, MIXELM=0) 
 = 0.1133    (WHEN MIN. R.F.=1)  AT K=   3, I=   2, J=  28
=======
 = 0.1870    (WHEN MIN. R.F.=1)  AT K=   3, I=   2, J=  31

 MAXIMUM STEPSIZE WHICH MEETS STABILITY CRITERION OF THE ADVECTION TERM
 (FOR PURE FINITE-DIFFERENCE OPTION, MIXELM=0) 
 = 0.1249    (WHEN MIN. R.F.=1)  AT K=   3, I=   2, J=  30
>>>>>>> Stashed changes


 TOTAL NUMBER OF POINT SOURCES/SINKS PRESENT IN THE FLOW MODEL =   240

 MAXIMUM STEPSIZE WHICH MEETS STABILITY CRITERION OF THE SINK & SOURCE TERM
 = 0.1000E+31(WHEN MIN. R.F.=1)  AT K=   0, I=   0, J=   0

 MAXIMUM STEPSIZE WHICH MEETS STABILITY CRITERION OF THE DISPERSION TERM
<<<<<<< Updated upstream
 = 0.6199E-02(WHEN MIN. R.F.=1)  AT K=   3, I=   2, J=  31
     1 CALLS TO GCG PACKAGE FOR TRANSPORT TIME STEP   9 IN FLOW TIME STEP  49 STRESS PERIOD   2
     7 TOTAL ITERATIONS
  MAXIMUM CONCENTRATION CHANGES FOR EACH ITERATION:
  MAX. CHANGE LAYER,ROW,COL MAX. CHANGE LAYER,ROW,COL MAX. CHANGE LAYER,ROW,COL MAX. CHANGE LAYER,ROW,COL MAX. CHANGE LAYER,ROW,COL
 ------------------------------------------------------------------------------------------------------------------------------------
   0.1759E-03 ( 13,  3, 53)  0.1085E-04 (  5,  2, 63)  0.2226E-05 (  6,  1, 56)  0.6508E-06 (  3,  3, 31)  0.2913E-06 (  3,  3, 30)
   0.1150E-06 (  3,  3, 31)  0.3962E-07 (  3,  3, 30)


                                          ================================================
                                                         FROM TIME =   50.000     TO    51.000    
=======
 = 0.6702E-02(WHEN MIN. R.F.=1)  AT K=   3, I=   2, J=  30
     1 CALLS TO GCG PACKAGE FOR TRANSPORT TIME STEP   4 IN FLOW TIME STEP  44 STRESS PERIOD   2
    17 TOTAL ITERATIONS
0WARNING: NUMERICAL OSCILLATION ENCOUNTERED
 ONE OR MORE CELL CONCENTRATIONS LESS THAN CRHOREF
 SMALLEST DENSITY =  0.100E+04
 AT CELL (I,J,K) = (   3,  60,  28)
>>>>>>> Stashed changes

 
 SOLVING FOR HEAD 
 FLOW MODEL IS TRANSIENT
 FLOW MODEL CONTAINS CONSTANT-HEAD CELLS


 MAXIMUM STEPSIZE DURING WHICH ANY PARTICLE CANNOT MOVE MORE THAN ONE CELL
<<<<<<< Updated upstream
 = 0.1633    (WHEN MIN. R.F.=1)  AT K=   3, I=   2, J=  29

 MAXIMUM STEPSIZE WHICH MEETS STABILITY CRITERION OF THE ADVECTION TERM
 (FOR PURE FINITE-DIFFERENCE OPTION, MIXELM=0) 
 = 0.1133    (WHEN MIN. R.F.=1)  AT K=   3, I=   2, J=  28
=======
 = 0.1870    (WHEN MIN. R.F.=1)  AT K=   3, I=   2, J=  31

 MAXIMUM STEPSIZE WHICH MEETS STABILITY CRITERION OF THE ADVECTION TERM
 (FOR PURE FINITE-DIFFERENCE OPTION, MIXELM=0) 
 = 0.1249    (WHEN MIN. R.F.=1)  AT K=   3, I=   2, J=  30
>>>>>>> Stashed changes


 TOTAL NUMBER OF POINT SOURCES/SINKS PRESENT IN THE FLOW MODEL =   240

 MAXIMUM STEPSIZE WHICH MEETS STABILITY CRITERION OF THE SINK & SOURCE TERM
 = 0.1000E+31(WHEN MIN. R.F.=1)  AT K=   0, I=   0, J=   0

 MAXIMUM STEPSIZE WHICH MEETS STABILITY CRITERION OF THE DISPERSION TERM
<<<<<<< Updated upstream
 = 0.6199E-02(WHEN MIN. R.F.=1)  AT K=   3, I=   2, J=  31


     1 CALLS TO GCG PACKAGE FOR TRANSPORT TIME STEP   1 IN FLOW TIME STEP  50 STRESS PERIOD   2
    15 TOTAL ITERATIONS

 NO OUTPUT CONTROL FOR STRESS PERIOD    2   TIME STEP  50
=======
 = 0.6702E-02(WHEN MIN. R.F.=1)  AT K=   3, I=   2, J=  30
     1 CALLS TO GCG PACKAGE FOR TRANSPORT TIME STEP   5 IN FLOW TIME STEP  44 STRESS PERIOD   2
    17 TOTAL ITERATIONS
0WARNING: NUMERICAL OSCILLATION ENCOUNTERED
 ONE OR MORE CELL CONCENTRATIONS LESS THAN CRHOREF
 SMALLEST DENSITY =  0.100E+04
 AT CELL (I,J,K) = (   2,  60,  27)

>>>>>>> Stashed changes
 
 SOLVING FOR HEAD 
 FLOW MODEL IS TRANSIENT
 FLOW MODEL CONTAINS CONSTANT-HEAD CELLS


 MAXIMUM STEPSIZE DURING WHICH ANY PARTICLE CANNOT MOVE MORE THAN ONE CELL
<<<<<<< Updated upstream
 = 0.1633    (WHEN MIN. R.F.=1)  AT K=   3, I=   2, J=  29

 MAXIMUM STEPSIZE WHICH MEETS STABILITY CRITERION OF THE ADVECTION TERM
 (FOR PURE FINITE-DIFFERENCE OPTION, MIXELM=0) 
 = 0.1133    (WHEN MIN. R.F.=1)  AT K=   3, I=   2, J=  28
=======
 = 0.1870    (WHEN MIN. R.F.=1)  AT K=   3, I=   2, J=  31

 MAXIMUM STEPSIZE WHICH MEETS STABILITY CRITERION OF THE ADVECTION TERM
 (FOR PURE FINITE-DIFFERENCE OPTION, MIXELM=0) 
 = 0.1249    (WHEN MIN. R.F.=1)  AT K=   3, I=   2, J=  30
>>>>>>> Stashed changes


 TOTAL NUMBER OF POINT SOURCES/SINKS PRESENT IN THE FLOW MODEL =   240

 MAXIMUM STEPSIZE WHICH MEETS STABILITY CRITERION OF THE SINK & SOURCE TERM
 = 0.1000E+31(WHEN MIN. R.F.=1)  AT K=   0, I=   0, J=   0

 MAXIMUM STEPSIZE WHICH MEETS STABILITY CRITERION OF THE DISPERSION TERM
<<<<<<< Updated upstream
 = 0.6199E-02(WHEN MIN. R.F.=1)  AT K=   3, I=   2, J=  31
     1 CALLS TO GCG PACKAGE FOR TRANSPORT TIME STEP   2 IN FLOW TIME STEP  50 STRESS PERIOD   2
    15 TOTAL ITERATIONS
=======
 = 0.6702E-02(WHEN MIN. R.F.=1)  AT K=   3, I=   2, J=  30
     1 CALLS TO GCG PACKAGE FOR TRANSPORT TIME STEP   6 IN FLOW TIME STEP  44 STRESS PERIOD   2
    17 TOTAL ITERATIONS
0WARNING: NUMERICAL OSCILLATION ENCOUNTERED
 ONE OR MORE CELL CONCENTRATIONS LESS THAN CRHOREF
 SMALLEST DENSITY =  0.100E+04
 AT CELL (I,J,K) = (   2,  60,  27)

>>>>>>> Stashed changes
 
 SOLVING FOR HEAD 
 FLOW MODEL IS TRANSIENT
 FLOW MODEL CONTAINS CONSTANT-HEAD CELLS


 MAXIMUM STEPSIZE DURING WHICH ANY PARTICLE CANNOT MOVE MORE THAN ONE CELL
<<<<<<< Updated upstream
 = 0.1633    (WHEN MIN. R.F.=1)  AT K=   3, I=   2, J=  29

 MAXIMUM STEPSIZE WHICH MEETS STABILITY CRITERION OF THE ADVECTION TERM
 (FOR PURE FINITE-DIFFERENCE OPTION, MIXELM=0) 
 = 0.1133    (WHEN MIN. R.F.=1)  AT K=   3, I=   2, J=  28
=======
 = 0.1870    (WHEN MIN. R.F.=1)  AT K=   3, I=   2, J=  31

 MAXIMUM STEPSIZE WHICH MEETS STABILITY CRITERION OF THE ADVECTION TERM
 (FOR PURE FINITE-DIFFERENCE OPTION, MIXELM=0) 
 = 0.1249    (WHEN MIN. R.F.=1)  AT K=   3, I=   2, J=  30
>>>>>>> Stashed changes


 TOTAL NUMBER OF POINT SOURCES/SINKS PRESENT IN THE FLOW MODEL =   240

 MAXIMUM STEPSIZE WHICH MEETS STABILITY CRITERION OF THE SINK & SOURCE TERM
 = 0.1000E+31(WHEN MIN. R.F.=1)  AT K=   0, I=   0, J=   0

 MAXIMUM STEPSIZE WHICH MEETS STABILITY CRITERION OF THE DISPERSION TERM
<<<<<<< Updated upstream
 = 0.6199E-02(WHEN MIN. R.F.=1)  AT K=   3, I=   2, J=  31
     1 CALLS TO GCG PACKAGE FOR TRANSPORT TIME STEP   3 IN FLOW TIME STEP  50 STRESS PERIOD   2
    15 TOTAL ITERATIONS
=======
 = 0.6702E-02(WHEN MIN. R.F.=1)  AT K=   3, I=   2, J=  30
     1 CALLS TO GCG PACKAGE FOR TRANSPORT TIME STEP   7 IN FLOW TIME STEP  44 STRESS PERIOD   2
    16 TOTAL ITERATIONS
0WARNING: NUMERICAL OSCILLATION ENCOUNTERED
 ONE OR MORE CELL CONCENTRATIONS LESS THAN CRHOREF
 SMALLEST DENSITY =  0.100E+04
 AT CELL (I,J,K) = (   2,  60,  27)

>>>>>>> Stashed changes
 
 SOLVING FOR HEAD 
 FLOW MODEL IS TRANSIENT
 FLOW MODEL CONTAINS CONSTANT-HEAD CELLS


 MAXIMUM STEPSIZE DURING WHICH ANY PARTICLE CANNOT MOVE MORE THAN ONE CELL
<<<<<<< Updated upstream
 = 0.1633    (WHEN MIN. R.F.=1)  AT K=   3, I=   2, J=  29

 MAXIMUM STEPSIZE WHICH MEETS STABILITY CRITERION OF THE ADVECTION TERM
 (FOR PURE FINITE-DIFFERENCE OPTION, MIXELM=0) 
 = 0.1133    (WHEN MIN. R.F.=1)  AT K=   3, I=   2, J=  28
=======
 = 0.1870    (WHEN MIN. R.F.=1)  AT K=   3, I=   2, J=  31

 MAXIMUM STEPSIZE WHICH MEETS STABILITY CRITERION OF THE ADVECTION TERM
 (FOR PURE FINITE-DIFFERENCE OPTION, MIXELM=0) 
 = 0.1249    (WHEN MIN. R.F.=1)  AT K=   3, I=   2, J=  30
>>>>>>> Stashed changes


 TOTAL NUMBER OF POINT SOURCES/SINKS PRESENT IN THE FLOW MODEL =   240

 MAXIMUM STEPSIZE WHICH MEETS STABILITY CRITERION OF THE SINK & SOURCE TERM
 = 0.1000E+31(WHEN MIN. R.F.=1)  AT K=   0, I=   0, J=   0

 MAXIMUM STEPSIZE WHICH MEETS STABILITY CRITERION OF THE DISPERSION TERM
<<<<<<< Updated upstream
 = 0.6199E-02(WHEN MIN. R.F.=1)  AT K=   3, I=   2, J=  31
     1 CALLS TO GCG PACKAGE FOR TRANSPORT TIME STEP   4 IN FLOW TIME STEP  50 STRESS PERIOD   2
    15 TOTAL ITERATIONS
=======
 = 0.6702E-02(WHEN MIN. R.F.=1)  AT K=   3, I=   2, J=  30
     1 CALLS TO GCG PACKAGE FOR TRANSPORT TIME STEP   8 IN FLOW TIME STEP  44 STRESS PERIOD   2
     6 TOTAL ITERATIONS
  MAXIMUM CONCENTRATION CHANGES FOR EACH ITERATION:
  MAX. CHANGE LAYER,ROW,COL MAX. CHANGE LAYER,ROW,COL MAX. CHANGE LAYER,ROW,COL MAX. CHANGE LAYER,ROW,COL MAX. CHANGE LAYER,ROW,COL
 ------------------------------------------------------------------------------------------------------------------------------------
   0.1756E-03 ( 14,  3, 46)  0.8397E-05 (  5,  2, 60)  0.1945E-05 (  4,  2, 44)  0.7216E-06 (  3,  2, 37)  0.1990E-06 (  4,  1, 31)
   0.7850E-07 (  3,  1, 31)
 UBDSV1 SAVING "         STORAGE" ON UNIT  53 AT TIME STEP 44, STRESS PERIOD   2
 UBDSV2 SAVING "   CONSTANT HEAD" ON UNIT  53 AT TIME STEP 44, STRESS PERIOD   2
 UBDSV1 SAVING "FLOW RIGHT FACE " ON UNIT  53 AT TIME STEP 44, STRESS PERIOD   2
 UBDSV1 SAVING "FLOW FRONT FACE " ON UNIT  53 AT TIME STEP 44, STRESS PERIOD   2
 UBDSV1 SAVING "FLOW LOWER FACE " ON UNIT  53 AT TIME STEP 44, STRESS PERIOD   2
 UBDSV1 SAVING "            DCDT" ON UNIT  53 AT TIME STEP 44, STRESS PERIOD   2
0WARNING: NUMERICAL OSCILLATION ENCOUNTERED
 ONE OR MORE CELL CONCENTRATIONS LESS THAN CRHOREF
 SMALLEST DENSITY =  0.100E+04
 AT CELL (I,J,K) = (   2,  60,  27)


 HEAD WILL BE SAVED ON UNIT   51 AT END OF TIME STEP  44, STRESS PERIOD    2


                                          ================================================
                                                         FROM TIME =   45.000     TO    46.000    

>>>>>>> Stashed changes
 
 SOLVING FOR HEAD 
 FLOW MODEL IS TRANSIENT
 FLOW MODEL CONTAINS CONSTANT-HEAD CELLS


 MAXIMUM STEPSIZE DURING WHICH ANY PARTICLE CANNOT MOVE MORE THAN ONE CELL
<<<<<<< Updated upstream
 = 0.1633    (WHEN MIN. R.F.=1)  AT K=   3, I=   2, J=  29

 MAXIMUM STEPSIZE WHICH MEETS STABILITY CRITERION OF THE ADVECTION TERM
 (FOR PURE FINITE-DIFFERENCE OPTION, MIXELM=0) 
 = 0.1133    (WHEN MIN. R.F.=1)  AT K=   3, I=   2, J=  28
=======
 = 0.1870    (WHEN MIN. R.F.=1)  AT K=   3, I=   2, J=  31

 MAXIMUM STEPSIZE WHICH MEETS STABILITY CRITERION OF THE ADVECTION TERM
 (FOR PURE FINITE-DIFFERENCE OPTION, MIXELM=0) 
 = 0.1249    (WHEN MIN. R.F.=1)  AT K=   3, I=   2, J=  30
>>>>>>> Stashed changes


 TOTAL NUMBER OF POINT SOURCES/SINKS PRESENT IN THE FLOW MODEL =   240

 MAXIMUM STEPSIZE WHICH MEETS STABILITY CRITERION OF THE SINK & SOURCE TERM
 = 0.1000E+31(WHEN MIN. R.F.=1)  AT K=   0, I=   0, J=   0

 MAXIMUM STEPSIZE WHICH MEETS STABILITY CRITERION OF THE DISPERSION TERM
<<<<<<< Updated upstream
 = 0.6199E-02(WHEN MIN. R.F.=1)  AT K=   3, I=   2, J=  31
     1 CALLS TO GCG PACKAGE FOR TRANSPORT TIME STEP   5 IN FLOW TIME STEP  50 STRESS PERIOD   2
    15 TOTAL ITERATIONS
=======
 = 0.6702E-02(WHEN MIN. R.F.=1)  AT K=   3, I=   2, J=  30


     1 CALLS TO GCG PACKAGE FOR TRANSPORT TIME STEP   1 IN FLOW TIME STEP  45 STRESS PERIOD   2
    16 TOTAL ITERATIONS

 OUTPUT CONTROL FOR STRESS PERIOD    2   TIME STEP  45
    SAVE HEAD FOR ALL LAYERS
    SAVE BUDGET
0WARNING: NUMERICAL OSCILLATION ENCOUNTERED
 ONE OR MORE CELL CONCENTRATIONS LESS THAN CRHOREF
 SMALLEST DENSITY =  0.100E+04
 AT CELL (I,J,K) = (   2,  60,  27)

>>>>>>> Stashed changes
 
 SOLVING FOR HEAD 
 FLOW MODEL IS TRANSIENT
 FLOW MODEL CONTAINS CONSTANT-HEAD CELLS


 MAXIMUM STEPSIZE DURING WHICH ANY PARTICLE CANNOT MOVE MORE THAN ONE CELL
<<<<<<< Updated upstream
 = 0.1633    (WHEN MIN. R.F.=1)  AT K=   3, I=   2, J=  29

 MAXIMUM STEPSIZE WHICH MEETS STABILITY CRITERION OF THE ADVECTION TERM
 (FOR PURE FINITE-DIFFERENCE OPTION, MIXELM=0) 
 = 0.1133    (WHEN MIN. R.F.=1)  AT K=   3, I=   2, J=  28
=======
 = 0.1870    (WHEN MIN. R.F.=1)  AT K=   3, I=   2, J=  31

 MAXIMUM STEPSIZE WHICH MEETS STABILITY CRITERION OF THE ADVECTION TERM
 (FOR PURE FINITE-DIFFERENCE OPTION, MIXELM=0) 
 = 0.1249    (WHEN MIN. R.F.=1)  AT K=   3, I=   2, J=  30
>>>>>>> Stashed changes


 TOTAL NUMBER OF POINT SOURCES/SINKS PRESENT IN THE FLOW MODEL =   240

 MAXIMUM STEPSIZE WHICH MEETS STABILITY CRITERION OF THE SINK & SOURCE TERM
 = 0.1000E+31(WHEN MIN. R.F.=1)  AT K=   0, I=   0, J=   0

 MAXIMUM STEPSIZE WHICH MEETS STABILITY CRITERION OF THE DISPERSION TERM
<<<<<<< Updated upstream
 = 0.6198E-02(WHEN MIN. R.F.=1)  AT K=   3, I=   2, J=  31
     1 CALLS TO GCG PACKAGE FOR TRANSPORT TIME STEP   6 IN FLOW TIME STEP  50 STRESS PERIOD   2
    15 TOTAL ITERATIONS
=======
 = 0.6702E-02(WHEN MIN. R.F.=1)  AT K=   3, I=   2, J=  30
     1 CALLS TO GCG PACKAGE FOR TRANSPORT TIME STEP   2 IN FLOW TIME STEP  45 STRESS PERIOD   2
    16 TOTAL ITERATIONS
0WARNING: NUMERICAL OSCILLATION ENCOUNTERED
 ONE OR MORE CELL CONCENTRATIONS LESS THAN CRHOREF
 SMALLEST DENSITY =  0.100E+04
 AT CELL (I,J,K) = (   2,  60,  27)

>>>>>>> Stashed changes
 
 SOLVING FOR HEAD 
 FLOW MODEL IS TRANSIENT
 FLOW MODEL CONTAINS CONSTANT-HEAD CELLS


 MAXIMUM STEPSIZE DURING WHICH ANY PARTICLE CANNOT MOVE MORE THAN ONE CELL
<<<<<<< Updated upstream
 = 0.1633    (WHEN MIN. R.F.=1)  AT K=   3, I=   2, J=  29

 MAXIMUM STEPSIZE WHICH MEETS STABILITY CRITERION OF THE ADVECTION TERM
 (FOR PURE FINITE-DIFFERENCE OPTION, MIXELM=0) 
 = 0.1132    (WHEN MIN. R.F.=1)  AT K=   3, I=   2, J=  28
=======
 = 0.1870    (WHEN MIN. R.F.=1)  AT K=   3, I=   2, J=  31

 MAXIMUM STEPSIZE WHICH MEETS STABILITY CRITERION OF THE ADVECTION TERM
 (FOR PURE FINITE-DIFFERENCE OPTION, MIXELM=0) 
 = 0.1249    (WHEN MIN. R.F.=1)  AT K=   3, I=   2, J=  30
>>>>>>> Stashed changes


 TOTAL NUMBER OF POINT SOURCES/SINKS PRESENT IN THE FLOW MODEL =   240

 MAXIMUM STEPSIZE WHICH MEETS STABILITY CRITERION OF THE SINK & SOURCE TERM
 = 0.1000E+31(WHEN MIN. R.F.=1)  AT K=   0, I=   0, J=   0

 MAXIMUM STEPSIZE WHICH MEETS STABILITY CRITERION OF THE DISPERSION TERM
<<<<<<< Updated upstream
 = 0.6198E-02(WHEN MIN. R.F.=1)  AT K=   3, I=   2, J=  31
     1 CALLS TO GCG PACKAGE FOR TRANSPORT TIME STEP   7 IN FLOW TIME STEP  50 STRESS PERIOD   2
    15 TOTAL ITERATIONS
=======
 = 0.6702E-02(WHEN MIN. R.F.=1)  AT K=   3, I=   2, J=  30
     1 CALLS TO GCG PACKAGE FOR TRANSPORT TIME STEP   3 IN FLOW TIME STEP  45 STRESS PERIOD   2
    16 TOTAL ITERATIONS
0WARNING: NUMERICAL OSCILLATION ENCOUNTERED
 ONE OR MORE CELL CONCENTRATIONS LESS THAN CRHOREF
 SMALLEST DENSITY =  0.100E+04
 AT CELL (I,J,K) = (   2,  60,  27)

>>>>>>> Stashed changes
 
 SOLVING FOR HEAD 
 FLOW MODEL IS TRANSIENT
 FLOW MODEL CONTAINS CONSTANT-HEAD CELLS


 MAXIMUM STEPSIZE DURING WHICH ANY PARTICLE CANNOT MOVE MORE THAN ONE CELL
<<<<<<< Updated upstream
 = 0.1633    (WHEN MIN. R.F.=1)  AT K=   3, I=   2, J=  29

 MAXIMUM STEPSIZE WHICH MEETS STABILITY CRITERION OF THE ADVECTION TERM
 (FOR PURE FINITE-DIFFERENCE OPTION, MIXELM=0) 
 = 0.1132    (WHEN MIN. R.F.=1)  AT K=   3, I=   2, J=  28
=======
 = 0.1870    (WHEN MIN. R.F.=1)  AT K=   3, I=   2, J=  31

 MAXIMUM STEPSIZE WHICH MEETS STABILITY CRITERION OF THE ADVECTION TERM
 (FOR PURE FINITE-DIFFERENCE OPTION, MIXELM=0) 
 = 0.1249    (WHEN MIN. R.F.=1)  AT K=   3, I=   2, J=  30
>>>>>>> Stashed changes


 TOTAL NUMBER OF POINT SOURCES/SINKS PRESENT IN THE FLOW MODEL =   240

 MAXIMUM STEPSIZE WHICH MEETS STABILITY CRITERION OF THE SINK & SOURCE TERM
 = 0.1000E+31(WHEN MIN. R.F.=1)  AT K=   0, I=   0, J=   0

 MAXIMUM STEPSIZE WHICH MEETS STABILITY CRITERION OF THE DISPERSION TERM
<<<<<<< Updated upstream
 = 0.6198E-02(WHEN MIN. R.F.=1)  AT K=   3, I=   2, J=  31
     1 CALLS TO GCG PACKAGE FOR TRANSPORT TIME STEP   8 IN FLOW TIME STEP  50 STRESS PERIOD   2
    15 TOTAL ITERATIONS
=======
 = 0.6702E-02(WHEN MIN. R.F.=1)  AT K=   3, I=   2, J=  30
     1 CALLS TO GCG PACKAGE FOR TRANSPORT TIME STEP   4 IN FLOW TIME STEP  45 STRESS PERIOD   2
    17 TOTAL ITERATIONS
0WARNING: NUMERICAL OSCILLATION ENCOUNTERED
 ONE OR MORE CELL CONCENTRATIONS LESS THAN CRHOREF
 SMALLEST DENSITY =  0.100E+04
 AT CELL (I,J,K) = (   2,  61,  27)

>>>>>>> Stashed changes
 
 SOLVING FOR HEAD 
 FLOW MODEL IS TRANSIENT
 FLOW MODEL CONTAINS CONSTANT-HEAD CELLS


 MAXIMUM STEPSIZE DURING WHICH ANY PARTICLE CANNOT MOVE MORE THAN ONE CELL
<<<<<<< Updated upstream
 = 0.1633    (WHEN MIN. R.F.=1)  AT K=   3, I=   2, J=  29

 MAXIMUM STEPSIZE WHICH MEETS STABILITY CRITERION OF THE ADVECTION TERM
 (FOR PURE FINITE-DIFFERENCE OPTION, MIXELM=0) 
 = 0.1132    (WHEN MIN. R.F.=1)  AT K=   3, I=   2, J=  28
=======
 = 0.1870    (WHEN MIN. R.F.=1)  AT K=   3, I=   2, J=  31

 MAXIMUM STEPSIZE WHICH MEETS STABILITY CRITERION OF THE ADVECTION TERM
 (FOR PURE FINITE-DIFFERENCE OPTION, MIXELM=0) 
 = 0.1249    (WHEN MIN. R.F.=1)  AT K=   3, I=   2, J=  30
>>>>>>> Stashed changes


 TOTAL NUMBER OF POINT SOURCES/SINKS PRESENT IN THE FLOW MODEL =   240

 MAXIMUM STEPSIZE WHICH MEETS STABILITY CRITERION OF THE SINK & SOURCE TERM
 = 0.1000E+31(WHEN MIN. R.F.=1)  AT K=   0, I=   0, J=   0

 MAXIMUM STEPSIZE WHICH MEETS STABILITY CRITERION OF THE DISPERSION TERM
<<<<<<< Updated upstream
 = 0.6198E-02(WHEN MIN. R.F.=1)  AT K=   3, I=   2, J=  31
     1 CALLS TO GCG PACKAGE FOR TRANSPORT TIME STEP   9 IN FLOW TIME STEP  50 STRESS PERIOD   2
     7 TOTAL ITERATIONS
  MAXIMUM CONCENTRATION CHANGES FOR EACH ITERATION:
  MAX. CHANGE LAYER,ROW,COL MAX. CHANGE LAYER,ROW,COL MAX. CHANGE LAYER,ROW,COL MAX. CHANGE LAYER,ROW,COL MAX. CHANGE LAYER,ROW,COL
 ------------------------------------------------------------------------------------------------------------------------------------
   0.1711E-03 ( 14,  3, 51)  0.1048E-04 (  5,  2, 63)  0.2148E-05 (  6,  1, 56)  0.6126E-06 (  3,  3, 31)  0.2763E-06 (  3,  3, 30)
   0.1087E-06 (  3,  3, 31)  0.3788E-07 (  3,  3, 30)


                                          ================================================
                                                         FROM TIME =   51.000     TO    52.000    
=======
 = 0.6702E-02(WHEN MIN. R.F.=1)  AT K=   3, I=   2, J=  30
     1 CALLS TO GCG PACKAGE FOR TRANSPORT TIME STEP   5 IN FLOW TIME STEP  45 STRESS PERIOD   2
    17 TOTAL ITERATIONS
0WARNING: NUMERICAL OSCILLATION ENCOUNTERED
 ONE OR MORE CELL CONCENTRATIONS LESS THAN CRHOREF
 SMALLEST DENSITY =  0.100E+04
 AT CELL (I,J,K) = (   2,  61,  27)
>>>>>>> Stashed changes

 
 SOLVING FOR HEAD 
 FLOW MODEL IS TRANSIENT
 FLOW MODEL CONTAINS CONSTANT-HEAD CELLS


 MAXIMUM STEPSIZE DURING WHICH ANY PARTICLE CANNOT MOVE MORE THAN ONE CELL
<<<<<<< Updated upstream
 = 0.1633    (WHEN MIN. R.F.=1)  AT K=   3, I=   2, J=  29

 MAXIMUM STEPSIZE WHICH MEETS STABILITY CRITERION OF THE ADVECTION TERM
 (FOR PURE FINITE-DIFFERENCE OPTION, MIXELM=0) 
 = 0.1132    (WHEN MIN. R.F.=1)  AT K=   3, I=   2, J=  28
=======
 = 0.1870    (WHEN MIN. R.F.=1)  AT K=   3, I=   2, J=  31

 MAXIMUM STEPSIZE WHICH MEETS STABILITY CRITERION OF THE ADVECTION TERM
 (FOR PURE FINITE-DIFFERENCE OPTION, MIXELM=0) 
 = 0.1249    (WHEN MIN. R.F.=1)  AT K=   3, I=   2, J=  30
>>>>>>> Stashed changes


 TOTAL NUMBER OF POINT SOURCES/SINKS PRESENT IN THE FLOW MODEL =   240

 MAXIMUM STEPSIZE WHICH MEETS STABILITY CRITERION OF THE SINK & SOURCE TERM
 = 0.1000E+31(WHEN MIN. R.F.=1)  AT K=   0, I=   0, J=   0

 MAXIMUM STEPSIZE WHICH MEETS STABILITY CRITERION OF THE DISPERSION TERM
<<<<<<< Updated upstream
 = 0.6198E-02(WHEN MIN. R.F.=1)  AT K=   3, I=   2, J=  31


     1 CALLS TO GCG PACKAGE FOR TRANSPORT TIME STEP   1 IN FLOW TIME STEP  51 STRESS PERIOD   2
    15 TOTAL ITERATIONS

 NO OUTPUT CONTROL FOR STRESS PERIOD    2   TIME STEP  51
=======
 = 0.6702E-02(WHEN MIN. R.F.=1)  AT K=   3, I=   2, J=  30
     1 CALLS TO GCG PACKAGE FOR TRANSPORT TIME STEP   6 IN FLOW TIME STEP  45 STRESS PERIOD   2
    16 TOTAL ITERATIONS
0WARNING: NUMERICAL OSCILLATION ENCOUNTERED
 ONE OR MORE CELL CONCENTRATIONS LESS THAN CRHOREF
 SMALLEST DENSITY =  0.100E+04
 AT CELL (I,J,K) = (   2,  61,  27)

>>>>>>> Stashed changes
 
 SOLVING FOR HEAD 
 FLOW MODEL IS TRANSIENT
 FLOW MODEL CONTAINS CONSTANT-HEAD CELLS


 MAXIMUM STEPSIZE DURING WHICH ANY PARTICLE CANNOT MOVE MORE THAN ONE CELL
<<<<<<< Updated upstream
 = 0.1633    (WHEN MIN. R.F.=1)  AT K=   3, I=   2, J=  29

 MAXIMUM STEPSIZE WHICH MEETS STABILITY CRITERION OF THE ADVECTION TERM
 (FOR PURE FINITE-DIFFERENCE OPTION, MIXELM=0) 
 = 0.1132    (WHEN MIN. R.F.=1)  AT K=   3, I=   2, J=  28
=======
 = 0.1870    (WHEN MIN. R.F.=1)  AT K=   3, I=   2, J=  31

 MAXIMUM STEPSIZE WHICH MEETS STABILITY CRITERION OF THE ADVECTION TERM
 (FOR PURE FINITE-DIFFERENCE OPTION, MIXELM=0) 
 = 0.1249    (WHEN MIN. R.F.=1)  AT K=   3, I=   2, J=  30
>>>>>>> Stashed changes


 TOTAL NUMBER OF POINT SOURCES/SINKS PRESENT IN THE FLOW MODEL =   240

 MAXIMUM STEPSIZE WHICH MEETS STABILITY CRITERION OF THE SINK & SOURCE TERM
 = 0.1000E+31(WHEN MIN. R.F.=1)  AT K=   0, I=   0, J=   0

 MAXIMUM STEPSIZE WHICH MEETS STABILITY CRITERION OF THE DISPERSION TERM
<<<<<<< Updated upstream
 = 0.6198E-02(WHEN MIN. R.F.=1)  AT K=   3, I=   2, J=  31
     1 CALLS TO GCG PACKAGE FOR TRANSPORT TIME STEP   2 IN FLOW TIME STEP  51 STRESS PERIOD   2
    15 TOTAL ITERATIONS
=======
 = 0.6702E-02(WHEN MIN. R.F.=1)  AT K=   3, I=   2, J=  30
     1 CALLS TO GCG PACKAGE FOR TRANSPORT TIME STEP   7 IN FLOW TIME STEP  45 STRESS PERIOD   2
    17 TOTAL ITERATIONS
0WARNING: NUMERICAL OSCILLATION ENCOUNTERED
 ONE OR MORE CELL CONCENTRATIONS LESS THAN CRHOREF
 SMALLEST DENSITY =  0.100E+04
 AT CELL (I,J,K) = (   2,  61,  27)

>>>>>>> Stashed changes
 
 SOLVING FOR HEAD 
 FLOW MODEL IS TRANSIENT
 FLOW MODEL CONTAINS CONSTANT-HEAD CELLS


 MAXIMUM STEPSIZE DURING WHICH ANY PARTICLE CANNOT MOVE MORE THAN ONE CELL
<<<<<<< Updated upstream
 = 0.1633    (WHEN MIN. R.F.=1)  AT K=   3, I=   2, J=  29

 MAXIMUM STEPSIZE WHICH MEETS STABILITY CRITERION OF THE ADVECTION TERM
 (FOR PURE FINITE-DIFFERENCE OPTION, MIXELM=0) 
 = 0.1132    (WHEN MIN. R.F.=1)  AT K=   3, I=   2, J=  28
=======
 = 0.1870    (WHEN MIN. R.F.=1)  AT K=   3, I=   2, J=  31

 MAXIMUM STEPSIZE WHICH MEETS STABILITY CRITERION OF THE ADVECTION TERM
 (FOR PURE FINITE-DIFFERENCE OPTION, MIXELM=0) 
 = 0.1249    (WHEN MIN. R.F.=1)  AT K=   3, I=   2, J=  30
>>>>>>> Stashed changes


 TOTAL NUMBER OF POINT SOURCES/SINKS PRESENT IN THE FLOW MODEL =   240

 MAXIMUM STEPSIZE WHICH MEETS STABILITY CRITERION OF THE SINK & SOURCE TERM
 = 0.1000E+31(WHEN MIN. R.F.=1)  AT K=   0, I=   0, J=   0

 MAXIMUM STEPSIZE WHICH MEETS STABILITY CRITERION OF THE DISPERSION TERM
<<<<<<< Updated upstream
 = 0.6198E-02(WHEN MIN. R.F.=1)  AT K=   3, I=   2, J=  31
     1 CALLS TO GCG PACKAGE FOR TRANSPORT TIME STEP   3 IN FLOW TIME STEP  51 STRESS PERIOD   2
    15 TOTAL ITERATIONS
=======
 = 0.6702E-02(WHEN MIN. R.F.=1)  AT K=   3, I=   2, J=  30
     1 CALLS TO GCG PACKAGE FOR TRANSPORT TIME STEP   8 IN FLOW TIME STEP  45 STRESS PERIOD   2
     6 TOTAL ITERATIONS
  MAXIMUM CONCENTRATION CHANGES FOR EACH ITERATION:
  MAX. CHANGE LAYER,ROW,COL MAX. CHANGE LAYER,ROW,COL MAX. CHANGE LAYER,ROW,COL MAX. CHANGE LAYER,ROW,COL MAX. CHANGE LAYER,ROW,COL
 ------------------------------------------------------------------------------------------------------------------------------------
   0.1727E-03 ( 14,  3, 46)  0.8078E-05 (  5,  2, 60)  0.1865E-05 (  4,  2, 44)  0.6972E-06 (  3,  2, 37)  0.1867E-06 (  4,  2, 37)
   0.6694E-07 (  3,  3, 27)
 UBDSV1 SAVING "         STORAGE" ON UNIT  53 AT TIME STEP 45, STRESS PERIOD   2
 UBDSV2 SAVING "   CONSTANT HEAD" ON UNIT  53 AT TIME STEP 45, STRESS PERIOD   2
 UBDSV1 SAVING "FLOW RIGHT FACE " ON UNIT  53 AT TIME STEP 45, STRESS PERIOD   2
 UBDSV1 SAVING "FLOW FRONT FACE " ON UNIT  53 AT TIME STEP 45, STRESS PERIOD   2
 UBDSV1 SAVING "FLOW LOWER FACE " ON UNIT  53 AT TIME STEP 45, STRESS PERIOD   2
 UBDSV1 SAVING "            DCDT" ON UNIT  53 AT TIME STEP 45, STRESS PERIOD   2
0WARNING: NUMERICAL OSCILLATION ENCOUNTERED
 ONE OR MORE CELL CONCENTRATIONS LESS THAN CRHOREF
 SMALLEST DENSITY =  0.100E+04
 AT CELL (I,J,K) = (   2,  61,  27)


 HEAD WILL BE SAVED ON UNIT   51 AT END OF TIME STEP  45, STRESS PERIOD    2


                                          ================================================
                                                         FROM TIME =   46.000     TO    47.000    

>>>>>>> Stashed changes
 
 SOLVING FOR HEAD 
 FLOW MODEL IS TRANSIENT
 FLOW MODEL CONTAINS CONSTANT-HEAD CELLS


 MAXIMUM STEPSIZE DURING WHICH ANY PARTICLE CANNOT MOVE MORE THAN ONE CELL
<<<<<<< Updated upstream
 = 0.1633    (WHEN MIN. R.F.=1)  AT K=   3, I=   2, J=  29

 MAXIMUM STEPSIZE WHICH MEETS STABILITY CRITERION OF THE ADVECTION TERM
 (FOR PURE FINITE-DIFFERENCE OPTION, MIXELM=0) 
 = 0.1132    (WHEN MIN. R.F.=1)  AT K=   3, I=   2, J=  28
=======
 = 0.1870    (WHEN MIN. R.F.=1)  AT K=   3, I=   2, J=  31

 MAXIMUM STEPSIZE WHICH MEETS STABILITY CRITERION OF THE ADVECTION TERM
 (FOR PURE FINITE-DIFFERENCE OPTION, MIXELM=0) 
 = 0.1249    (WHEN MIN. R.F.=1)  AT K=   3, I=   2, J=  30
>>>>>>> Stashed changes


 TOTAL NUMBER OF POINT SOURCES/SINKS PRESENT IN THE FLOW MODEL =   240

 MAXIMUM STEPSIZE WHICH MEETS STABILITY CRITERION OF THE SINK & SOURCE TERM
 = 0.1000E+31(WHEN MIN. R.F.=1)  AT K=   0, I=   0, J=   0

 MAXIMUM STEPSIZE WHICH MEETS STABILITY CRITERION OF THE DISPERSION TERM
<<<<<<< Updated upstream
 = 0.6198E-02(WHEN MIN. R.F.=1)  AT K=   3, I=   2, J=  31
     1 CALLS TO GCG PACKAGE FOR TRANSPORT TIME STEP   4 IN FLOW TIME STEP  51 STRESS PERIOD   2
    15 TOTAL ITERATIONS
=======
 = 0.6702E-02(WHEN MIN. R.F.=1)  AT K=   3, I=   2, J=  30


     1 CALLS TO GCG PACKAGE FOR TRANSPORT TIME STEP   1 IN FLOW TIME STEP  46 STRESS PERIOD   2
    16 TOTAL ITERATIONS

 OUTPUT CONTROL FOR STRESS PERIOD    2   TIME STEP  46
    SAVE HEAD FOR ALL LAYERS
    SAVE BUDGET
0WARNING: NUMERICAL OSCILLATION ENCOUNTERED
 ONE OR MORE CELL CONCENTRATIONS LESS THAN CRHOREF
 SMALLEST DENSITY =  0.100E+04
 AT CELL (I,J,K) = (   2,  61,  27)

>>>>>>> Stashed changes
 
 SOLVING FOR HEAD 
 FLOW MODEL IS TRANSIENT
 FLOW MODEL CONTAINS CONSTANT-HEAD CELLS


 MAXIMUM STEPSIZE DURING WHICH ANY PARTICLE CANNOT MOVE MORE THAN ONE CELL
<<<<<<< Updated upstream
 = 0.1633    (WHEN MIN. R.F.=1)  AT K=   3, I=   2, J=  29

 MAXIMUM STEPSIZE WHICH MEETS STABILITY CRITERION OF THE ADVECTION TERM
 (FOR PURE FINITE-DIFFERENCE OPTION, MIXELM=0) 
 = 0.1132    (WHEN MIN. R.F.=1)  AT K=   3, I=   2, J=  28
=======
 = 0.1870    (WHEN MIN. R.F.=1)  AT K=   3, I=   2, J=  31

 MAXIMUM STEPSIZE WHICH MEETS STABILITY CRITERION OF THE ADVECTION TERM
 (FOR PURE FINITE-DIFFERENCE OPTION, MIXELM=0) 
 = 0.1249    (WHEN MIN. R.F.=1)  AT K=   3, I=   2, J=  30
>>>>>>> Stashed changes


 TOTAL NUMBER OF POINT SOURCES/SINKS PRESENT IN THE FLOW MODEL =   240

 MAXIMUM STEPSIZE WHICH MEETS STABILITY CRITERION OF THE SINK & SOURCE TERM
 = 0.1000E+31(WHEN MIN. R.F.=1)  AT K=   0, I=   0, J=   0

 MAXIMUM STEPSIZE WHICH MEETS STABILITY CRITERION OF THE DISPERSION TERM
<<<<<<< Updated upstream
 = 0.6198E-02(WHEN MIN. R.F.=1)  AT K=   3, I=   2, J=  31
     1 CALLS TO GCG PACKAGE FOR TRANSPORT TIME STEP   5 IN FLOW TIME STEP  51 STRESS PERIOD   2
    15 TOTAL ITERATIONS
=======
 = 0.6702E-02(WHEN MIN. R.F.=1)  AT K=   3, I=   2, J=  30
     1 CALLS TO GCG PACKAGE FOR TRANSPORT TIME STEP   2 IN FLOW TIME STEP  46 STRESS PERIOD   2
    16 TOTAL ITERATIONS
0WARNING: NUMERICAL OSCILLATION ENCOUNTERED
 ONE OR MORE CELL CONCENTRATIONS LESS THAN CRHOREF
 SMALLEST DENSITY =  0.100E+04
 AT CELL (I,J,K) = (   2,  61,  27)

>>>>>>> Stashed changes
 
 SOLVING FOR HEAD 
 FLOW MODEL IS TRANSIENT
 FLOW MODEL CONTAINS CONSTANT-HEAD CELLS


 MAXIMUM STEPSIZE DURING WHICH ANY PARTICLE CANNOT MOVE MORE THAN ONE CELL
<<<<<<< Updated upstream
 = 0.1633    (WHEN MIN. R.F.=1)  AT K=   3, I=   2, J=  29

 MAXIMUM STEPSIZE WHICH MEETS STABILITY CRITERION OF THE ADVECTION TERM
 (FOR PURE FINITE-DIFFERENCE OPTION, MIXELM=0) 
 = 0.1132    (WHEN MIN. R.F.=1)  AT K=   3, I=   2, J=  28
=======
 = 0.1870    (WHEN MIN. R.F.=1)  AT K=   3, I=   2, J=  31

 MAXIMUM STEPSIZE WHICH MEETS STABILITY CRITERION OF THE ADVECTION TERM
 (FOR PURE FINITE-DIFFERENCE OPTION, MIXELM=0) 
 = 0.1249    (WHEN MIN. R.F.=1)  AT K=   3, I=   2, J=  30
>>>>>>> Stashed changes


 TOTAL NUMBER OF POINT SOURCES/SINKS PRESENT IN THE FLOW MODEL =   240

 MAXIMUM STEPSIZE WHICH MEETS STABILITY CRITERION OF THE SINK & SOURCE TERM
 = 0.1000E+31(WHEN MIN. R.F.=1)  AT K=   0, I=   0, J=   0

 MAXIMUM STEPSIZE WHICH MEETS STABILITY CRITERION OF THE DISPERSION TERM
<<<<<<< Updated upstream
 = 0.6198E-02(WHEN MIN. R.F.=1)  AT K=   3, I=   2, J=  31
     1 CALLS TO GCG PACKAGE FOR TRANSPORT TIME STEP   6 IN FLOW TIME STEP  51 STRESS PERIOD   2
    15 TOTAL ITERATIONS
=======
 = 0.6702E-02(WHEN MIN. R.F.=1)  AT K=   3, I=   2, J=  30
     1 CALLS TO GCG PACKAGE FOR TRANSPORT TIME STEP   3 IN FLOW TIME STEP  46 STRESS PERIOD   2
    16 TOTAL ITERATIONS
0WARNING: NUMERICAL OSCILLATION ENCOUNTERED
 ONE OR MORE CELL CONCENTRATIONS LESS THAN CRHOREF
 SMALLEST DENSITY =  0.100E+04
 AT CELL (I,J,K) = (   2,  61,  27)

>>>>>>> Stashed changes
 
 SOLVING FOR HEAD 
 FLOW MODEL IS TRANSIENT
 FLOW MODEL CONTAINS CONSTANT-HEAD CELLS


 MAXIMUM STEPSIZE DURING WHICH ANY PARTICLE CANNOT MOVE MORE THAN ONE CELL
<<<<<<< Updated upstream
 = 0.1633    (WHEN MIN. R.F.=1)  AT K=   3, I=   2, J=  29

 MAXIMUM STEPSIZE WHICH MEETS STABILITY CRITERION OF THE ADVECTION TERM
 (FOR PURE FINITE-DIFFERENCE OPTION, MIXELM=0) 
 = 0.1132    (WHEN MIN. R.F.=1)  AT K=   3, I=   2, J=  28
=======
 = 0.1870    (WHEN MIN. R.F.=1)  AT K=   3, I=   2, J=  31

 MAXIMUM STEPSIZE WHICH MEETS STABILITY CRITERION OF THE ADVECTION TERM
 (FOR PURE FINITE-DIFFERENCE OPTION, MIXELM=0) 
 = 0.1249    (WHEN MIN. R.F.=1)  AT K=   3, I=   2, J=  30
>>>>>>> Stashed changes


 TOTAL NUMBER OF POINT SOURCES/SINKS PRESENT IN THE FLOW MODEL =   240

 MAXIMUM STEPSIZE WHICH MEETS STABILITY CRITERION OF THE SINK & SOURCE TERM
 = 0.1000E+31(WHEN MIN. R.F.=1)  AT K=   0, I=   0, J=   0

 MAXIMUM STEPSIZE WHICH MEETS STABILITY CRITERION OF THE DISPERSION TERM
<<<<<<< Updated upstream
 = 0.6198E-02(WHEN MIN. R.F.=1)  AT K=   3, I=   2, J=  31
     1 CALLS TO GCG PACKAGE FOR TRANSPORT TIME STEP   7 IN FLOW TIME STEP  51 STRESS PERIOD   2
    15 TOTAL ITERATIONS
=======
 = 0.6702E-02(WHEN MIN. R.F.=1)  AT K=   3, I=   2, J=  30
     1 CALLS TO GCG PACKAGE FOR TRANSPORT TIME STEP   4 IN FLOW TIME STEP  46 STRESS PERIOD   2
    16 TOTAL ITERATIONS
0WARNING: NUMERICAL OSCILLATION ENCOUNTERED
 ONE OR MORE CELL CONCENTRATIONS LESS THAN CRHOREF
 SMALLEST DENSITY =  0.100E+04
 AT CELL (I,J,K) = (   2,  61,  27)

>>>>>>> Stashed changes
 
 SOLVING FOR HEAD 
 FLOW MODEL IS TRANSIENT
 FLOW MODEL CONTAINS CONSTANT-HEAD CELLS


 MAXIMUM STEPSIZE DURING WHICH ANY PARTICLE CANNOT MOVE MORE THAN ONE CELL
<<<<<<< Updated upstream
 = 0.1633    (WHEN MIN. R.F.=1)  AT K=   3, I=   2, J=  29

 MAXIMUM STEPSIZE WHICH MEETS STABILITY CRITERION OF THE ADVECTION TERM
 (FOR PURE FINITE-DIFFERENCE OPTION, MIXELM=0) 
 = 0.1132    (WHEN MIN. R.F.=1)  AT K=   3, I=   2, J=  28
=======
 = 0.1870    (WHEN MIN. R.F.=1)  AT K=   3, I=   2, J=  31

 MAXIMUM STEPSIZE WHICH MEETS STABILITY CRITERION OF THE ADVECTION TERM
 (FOR PURE FINITE-DIFFERENCE OPTION, MIXELM=0) 
 = 0.1249    (WHEN MIN. R.F.=1)  AT K=   3, I=   2, J=  30
>>>>>>> Stashed changes


 TOTAL NUMBER OF POINT SOURCES/SINKS PRESENT IN THE FLOW MODEL =   240

 MAXIMUM STEPSIZE WHICH MEETS STABILITY CRITERION OF THE SINK & SOURCE TERM
 = 0.1000E+31(WHEN MIN. R.F.=1)  AT K=   0, I=   0, J=   0

 MAXIMUM STEPSIZE WHICH MEETS STABILITY CRITERION OF THE DISPERSION TERM
<<<<<<< Updated upstream
 = 0.6198E-02(WHEN MIN. R.F.=1)  AT K=   3, I=   2, J=  31
     1 CALLS TO GCG PACKAGE FOR TRANSPORT TIME STEP   8 IN FLOW TIME STEP  51 STRESS PERIOD   2
    15 TOTAL ITERATIONS
=======
 = 0.6702E-02(WHEN MIN. R.F.=1)  AT K=   3, I=   2, J=  30
     1 CALLS TO GCG PACKAGE FOR TRANSPORT TIME STEP   5 IN FLOW TIME STEP  46 STRESS PERIOD   2
    16 TOTAL ITERATIONS
0WARNING: NUMERICAL OSCILLATION ENCOUNTERED
 ONE OR MORE CELL CONCENTRATIONS LESS THAN CRHOREF
 SMALLEST DENSITY =  0.100E+04
 AT CELL (I,J,K) = (   2,  61,  27)

>>>>>>> Stashed changes
 
 SOLVING FOR HEAD 
 FLOW MODEL IS TRANSIENT
 FLOW MODEL CONTAINS CONSTANT-HEAD CELLS


 MAXIMUM STEPSIZE DURING WHICH ANY PARTICLE CANNOT MOVE MORE THAN ONE CELL
<<<<<<< Updated upstream
 = 0.1633    (WHEN MIN. R.F.=1)  AT K=   3, I=   2, J=  29

 MAXIMUM STEPSIZE WHICH MEETS STABILITY CRITERION OF THE ADVECTION TERM
 (FOR PURE FINITE-DIFFERENCE OPTION, MIXELM=0) 
 = 0.1132    (WHEN MIN. R.F.=1)  AT K=   3, I=   2, J=  28
=======
 = 0.1870    (WHEN MIN. R.F.=1)  AT K=   3, I=   2, J=  31

 MAXIMUM STEPSIZE WHICH MEETS STABILITY CRITERION OF THE ADVECTION TERM
 (FOR PURE FINITE-DIFFERENCE OPTION, MIXELM=0) 
 = 0.1249    (WHEN MIN. R.F.=1)  AT K=   3, I=   2, J=  30
>>>>>>> Stashed changes


 TOTAL NUMBER OF POINT SOURCES/SINKS PRESENT IN THE FLOW MODEL =   240

 MAXIMUM STEPSIZE WHICH MEETS STABILITY CRITERION OF THE SINK & SOURCE TERM
 = 0.1000E+31(WHEN MIN. R.F.=1)  AT K=   0, I=   0, J=   0

 MAXIMUM STEPSIZE WHICH MEETS STABILITY CRITERION OF THE DISPERSION TERM
<<<<<<< Updated upstream
 = 0.6198E-02(WHEN MIN. R.F.=1)  AT K=   3, I=   2, J=  31
     1 CALLS TO GCG PACKAGE FOR TRANSPORT TIME STEP   9 IN FLOW TIME STEP  51 STRESS PERIOD   2
     7 TOTAL ITERATIONS
  MAXIMUM CONCENTRATION CHANGES FOR EACH ITERATION:
  MAX. CHANGE LAYER,ROW,COL MAX. CHANGE LAYER,ROW,COL MAX. CHANGE LAYER,ROW,COL MAX. CHANGE LAYER,ROW,COL MAX. CHANGE LAYER,ROW,COL
 ------------------------------------------------------------------------------------------------------------------------------------
   0.1696E-03 ( 14,  3, 51)  0.1014E-04 (  5,  2, 63)  0.2072E-05 (  6,  1, 56)  0.5748E-06 (  3,  3, 31)  0.2615E-06 (  3,  3, 30)
   0.1026E-06 (  3,  3, 31)  0.3617E-07 (  3,  3, 30)


                                          ================================================
                                                         FROM TIME =   52.000     TO    53.000    
=======
 = 0.6702E-02(WHEN MIN. R.F.=1)  AT K=   3, I=   2, J=  30
     1 CALLS TO GCG PACKAGE FOR TRANSPORT TIME STEP   6 IN FLOW TIME STEP  46 STRESS PERIOD   2
    16 TOTAL ITERATIONS
0WARNING: NUMERICAL OSCILLATION ENCOUNTERED
 ONE OR MORE CELL CONCENTRATIONS LESS THAN CRHOREF
 SMALLEST DENSITY =  0.100E+04
 AT CELL (I,J,K) = (   2,  61,  27)
>>>>>>> Stashed changes

 
 SOLVING FOR HEAD 
 FLOW MODEL IS TRANSIENT
 FLOW MODEL CONTAINS CONSTANT-HEAD CELLS


 MAXIMUM STEPSIZE DURING WHICH ANY PARTICLE CANNOT MOVE MORE THAN ONE CELL
<<<<<<< Updated upstream
 = 0.1633    (WHEN MIN. R.F.=1)  AT K=   3, I=   2, J=  29

 MAXIMUM STEPSIZE WHICH MEETS STABILITY CRITERION OF THE ADVECTION TERM
 (FOR PURE FINITE-DIFFERENCE OPTION, MIXELM=0) 
 = 0.1132    (WHEN MIN. R.F.=1)  AT K=   3, I=   2, J=  28
=======
 = 0.1870    (WHEN MIN. R.F.=1)  AT K=   3, I=   2, J=  31

 MAXIMUM STEPSIZE WHICH MEETS STABILITY CRITERION OF THE ADVECTION TERM
 (FOR PURE FINITE-DIFFERENCE OPTION, MIXELM=0) 
 = 0.1249    (WHEN MIN. R.F.=1)  AT K=   3, I=   2, J=  30
>>>>>>> Stashed changes


 TOTAL NUMBER OF POINT SOURCES/SINKS PRESENT IN THE FLOW MODEL =   240

 MAXIMUM STEPSIZE WHICH MEETS STABILITY CRITERION OF THE SINK & SOURCE TERM
 = 0.1000E+31(WHEN MIN. R.F.=1)  AT K=   0, I=   0, J=   0

 MAXIMUM STEPSIZE WHICH MEETS STABILITY CRITERION OF THE DISPERSION TERM
<<<<<<< Updated upstream
 = 0.6198E-02(WHEN MIN. R.F.=1)  AT K=   3, I=   2, J=  31


     1 CALLS TO GCG PACKAGE FOR TRANSPORT TIME STEP   1 IN FLOW TIME STEP  52 STRESS PERIOD   2
    15 TOTAL ITERATIONS

 NO OUTPUT CONTROL FOR STRESS PERIOD    2   TIME STEP  52
=======
 = 0.6702E-02(WHEN MIN. R.F.=1)  AT K=   3, I=   2, J=  30
     1 CALLS TO GCG PACKAGE FOR TRANSPORT TIME STEP   7 IN FLOW TIME STEP  46 STRESS PERIOD   2
    16 TOTAL ITERATIONS
0WARNING: NUMERICAL OSCILLATION ENCOUNTERED
 ONE OR MORE CELL CONCENTRATIONS LESS THAN CRHOREF
 SMALLEST DENSITY =  0.100E+04
 AT CELL (I,J,K) = (   2,  61,  27)

>>>>>>> Stashed changes
 
 SOLVING FOR HEAD 
 FLOW MODEL IS TRANSIENT
 FLOW MODEL CONTAINS CONSTANT-HEAD CELLS


 MAXIMUM STEPSIZE DURING WHICH ANY PARTICLE CANNOT MOVE MORE THAN ONE CELL
<<<<<<< Updated upstream
 = 0.1633    (WHEN MIN. R.F.=1)  AT K=   3, I=   2, J=  29

 MAXIMUM STEPSIZE WHICH MEETS STABILITY CRITERION OF THE ADVECTION TERM
 (FOR PURE FINITE-DIFFERENCE OPTION, MIXELM=0) 
 = 0.1132    (WHEN MIN. R.F.=1)  AT K=   3, I=   2, J=  28
=======
 = 0.1870    (WHEN MIN. R.F.=1)  AT K=   3, I=   2, J=  31

 MAXIMUM STEPSIZE WHICH MEETS STABILITY CRITERION OF THE ADVECTION TERM
 (FOR PURE FINITE-DIFFERENCE OPTION, MIXELM=0) 
 = 0.1249    (WHEN MIN. R.F.=1)  AT K=   3, I=   2, J=  30
>>>>>>> Stashed changes


 TOTAL NUMBER OF POINT SOURCES/SINKS PRESENT IN THE FLOW MODEL =   240

 MAXIMUM STEPSIZE WHICH MEETS STABILITY CRITERION OF THE SINK & SOURCE TERM
 = 0.1000E+31(WHEN MIN. R.F.=1)  AT K=   0, I=   0, J=   0

 MAXIMUM STEPSIZE WHICH MEETS STABILITY CRITERION OF THE DISPERSION TERM
<<<<<<< Updated upstream
 = 0.6198E-02(WHEN MIN. R.F.=1)  AT K=   3, I=   2, J=  31
     1 CALLS TO GCG PACKAGE FOR TRANSPORT TIME STEP   2 IN FLOW TIME STEP  52 STRESS PERIOD   2
    15 TOTAL ITERATIONS
=======
 = 0.6702E-02(WHEN MIN. R.F.=1)  AT K=   3, I=   2, J=  30
     1 CALLS TO GCG PACKAGE FOR TRANSPORT TIME STEP   8 IN FLOW TIME STEP  46 STRESS PERIOD   2
     6 TOTAL ITERATIONS
  MAXIMUM CONCENTRATION CHANGES FOR EACH ITERATION:
  MAX. CHANGE LAYER,ROW,COL MAX. CHANGE LAYER,ROW,COL MAX. CHANGE LAYER,ROW,COL MAX. CHANGE LAYER,ROW,COL MAX. CHANGE LAYER,ROW,COL
 ------------------------------------------------------------------------------------------------------------------------------------
   0.1697E-03 ( 14,  3, 46)  0.7776E-05 (  5,  2, 60)  0.1777E-05 (  4,  2, 44)  0.6596E-06 (  3,  2, 37)  0.1907E-06 (  4,  1, 31)
   0.7751E-07 (  3,  1, 31)
 UBDSV1 SAVING "         STORAGE" ON UNIT  53 AT TIME STEP 46, STRESS PERIOD   2
 UBDSV2 SAVING "   CONSTANT HEAD" ON UNIT  53 AT TIME STEP 46, STRESS PERIOD   2
 UBDSV1 SAVING "FLOW RIGHT FACE " ON UNIT  53 AT TIME STEP 46, STRESS PERIOD   2
 UBDSV1 SAVING "FLOW FRONT FACE " ON UNIT  53 AT TIME STEP 46, STRESS PERIOD   2
 UBDSV1 SAVING "FLOW LOWER FACE " ON UNIT  53 AT TIME STEP 46, STRESS PERIOD   2
 UBDSV1 SAVING "            DCDT" ON UNIT  53 AT TIME STEP 46, STRESS PERIOD   2
0WARNING: NUMERICAL OSCILLATION ENCOUNTERED
 ONE OR MORE CELL CONCENTRATIONS LESS THAN CRHOREF
 SMALLEST DENSITY =  0.100E+04
 AT CELL (I,J,K) = (   2,  61,  27)


 HEAD WILL BE SAVED ON UNIT   51 AT END OF TIME STEP  46, STRESS PERIOD    2


                                          ================================================
                                                         FROM TIME =   47.000     TO    48.000    

>>>>>>> Stashed changes
 
 SOLVING FOR HEAD 
 FLOW MODEL IS TRANSIENT
 FLOW MODEL CONTAINS CONSTANT-HEAD CELLS


 MAXIMUM STEPSIZE DURING WHICH ANY PARTICLE CANNOT MOVE MORE THAN ONE CELL
<<<<<<< Updated upstream
 = 0.1633    (WHEN MIN. R.F.=1)  AT K=   3, I=   2, J=  29

 MAXIMUM STEPSIZE WHICH MEETS STABILITY CRITERION OF THE ADVECTION TERM
 (FOR PURE FINITE-DIFFERENCE OPTION, MIXELM=0) 
 = 0.1132    (WHEN MIN. R.F.=1)  AT K=   3, I=   2, J=  28
=======
 = 0.1870    (WHEN MIN. R.F.=1)  AT K=   3, I=   2, J=  31

 MAXIMUM STEPSIZE WHICH MEETS STABILITY CRITERION OF THE ADVECTION TERM
 (FOR PURE FINITE-DIFFERENCE OPTION, MIXELM=0) 
 = 0.1249    (WHEN MIN. R.F.=1)  AT K=   3, I=   2, J=  30
>>>>>>> Stashed changes


 TOTAL NUMBER OF POINT SOURCES/SINKS PRESENT IN THE FLOW MODEL =   240

 MAXIMUM STEPSIZE WHICH MEETS STABILITY CRITERION OF THE SINK & SOURCE TERM
 = 0.1000E+31(WHEN MIN. R.F.=1)  AT K=   0, I=   0, J=   0

 MAXIMUM STEPSIZE WHICH MEETS STABILITY CRITERION OF THE DISPERSION TERM
<<<<<<< Updated upstream
 = 0.6198E-02(WHEN MIN. R.F.=1)  AT K=   3, I=   2, J=  31
     1 CALLS TO GCG PACKAGE FOR TRANSPORT TIME STEP   3 IN FLOW TIME STEP  52 STRESS PERIOD   2
    15 TOTAL ITERATIONS
=======
 = 0.6702E-02(WHEN MIN. R.F.=1)  AT K=   3, I=   2, J=  30


     1 CALLS TO GCG PACKAGE FOR TRANSPORT TIME STEP   1 IN FLOW TIME STEP  47 STRESS PERIOD   2
    16 TOTAL ITERATIONS

 OUTPUT CONTROL FOR STRESS PERIOD    2   TIME STEP  47
    SAVE HEAD FOR ALL LAYERS
    SAVE BUDGET
0WARNING: NUMERICAL OSCILLATION ENCOUNTERED
 ONE OR MORE CELL CONCENTRATIONS LESS THAN CRHOREF
 SMALLEST DENSITY =  0.100E+04
 AT CELL (I,J,K) = (   2,  61,  27)

>>>>>>> Stashed changes
 
 SOLVING FOR HEAD 
 FLOW MODEL IS TRANSIENT
 FLOW MODEL CONTAINS CONSTANT-HEAD CELLS


 MAXIMUM STEPSIZE DURING WHICH ANY PARTICLE CANNOT MOVE MORE THAN ONE CELL
<<<<<<< Updated upstream
 = 0.1633    (WHEN MIN. R.F.=1)  AT K=   3, I=   2, J=  29

 MAXIMUM STEPSIZE WHICH MEETS STABILITY CRITERION OF THE ADVECTION TERM
 (FOR PURE FINITE-DIFFERENCE OPTION, MIXELM=0) 
 = 0.1132    (WHEN MIN. R.F.=1)  AT K=   3, I=   2, J=  28
=======
 = 0.1870    (WHEN MIN. R.F.=1)  AT K=   3, I=   2, J=  31

 MAXIMUM STEPSIZE WHICH MEETS STABILITY CRITERION OF THE ADVECTION TERM
 (FOR PURE FINITE-DIFFERENCE OPTION, MIXELM=0) 
 = 0.1249    (WHEN MIN. R.F.=1)  AT K=   3, I=   2, J=  30
>>>>>>> Stashed changes


 TOTAL NUMBER OF POINT SOURCES/SINKS PRESENT IN THE FLOW MODEL =   240

 MAXIMUM STEPSIZE WHICH MEETS STABILITY CRITERION OF THE SINK & SOURCE TERM
 = 0.1000E+31(WHEN MIN. R.F.=1)  AT K=   0, I=   0, J=   0

 MAXIMUM STEPSIZE WHICH MEETS STABILITY CRITERION OF THE DISPERSION TERM
<<<<<<< Updated upstream
 = 0.6198E-02(WHEN MIN. R.F.=1)  AT K=   3, I=   2, J=  31
     1 CALLS TO GCG PACKAGE FOR TRANSPORT TIME STEP   4 IN FLOW TIME STEP  52 STRESS PERIOD   2
    15 TOTAL ITERATIONS
=======
 = 0.6702E-02(WHEN MIN. R.F.=1)  AT K=   3, I=   2, J=  30
     1 CALLS TO GCG PACKAGE FOR TRANSPORT TIME STEP   2 IN FLOW TIME STEP  47 STRESS PERIOD   2
    16 TOTAL ITERATIONS
0WARNING: NUMERICAL OSCILLATION ENCOUNTERED
 ONE OR MORE CELL CONCENTRATIONS LESS THAN CRHOREF
 SMALLEST DENSITY =  0.100E+04
 AT CELL (I,J,K) = (   2,  61,  27)

>>>>>>> Stashed changes
 
 SOLVING FOR HEAD 
 FLOW MODEL IS TRANSIENT
 FLOW MODEL CONTAINS CONSTANT-HEAD CELLS


 MAXIMUM STEPSIZE DURING WHICH ANY PARTICLE CANNOT MOVE MORE THAN ONE CELL
<<<<<<< Updated upstream
 = 0.1633    (WHEN MIN. R.F.=1)  AT K=   3, I=   2, J=  29

 MAXIMUM STEPSIZE WHICH MEETS STABILITY CRITERION OF THE ADVECTION TERM
 (FOR PURE FINITE-DIFFERENCE OPTION, MIXELM=0) 
 = 0.1132    (WHEN MIN. R.F.=1)  AT K=   3, I=   2, J=  28
=======
 = 0.1870    (WHEN MIN. R.F.=1)  AT K=   3, I=   2, J=  31

 MAXIMUM STEPSIZE WHICH MEETS STABILITY CRITERION OF THE ADVECTION TERM
 (FOR PURE FINITE-DIFFERENCE OPTION, MIXELM=0) 
 = 0.1249    (WHEN MIN. R.F.=1)  AT K=   3, I=   2, J=  30
>>>>>>> Stashed changes


 TOTAL NUMBER OF POINT SOURCES/SINKS PRESENT IN THE FLOW MODEL =   240

 MAXIMUM STEPSIZE WHICH MEETS STABILITY CRITERION OF THE SINK & SOURCE TERM
 = 0.1000E+31(WHEN MIN. R.F.=1)  AT K=   0, I=   0, J=   0

 MAXIMUM STEPSIZE WHICH MEETS STABILITY CRITERION OF THE DISPERSION TERM
<<<<<<< Updated upstream
 = 0.6198E-02(WHEN MIN. R.F.=1)  AT K=   3, I=   2, J=  31
     1 CALLS TO GCG PACKAGE FOR TRANSPORT TIME STEP   5 IN FLOW TIME STEP  52 STRESS PERIOD   2
    15 TOTAL ITERATIONS
=======
 = 0.6702E-02(WHEN MIN. R.F.=1)  AT K=   3, I=   2, J=  30
     1 CALLS TO GCG PACKAGE FOR TRANSPORT TIME STEP   3 IN FLOW TIME STEP  47 STRESS PERIOD   2
    16 TOTAL ITERATIONS
0WARNING: NUMERICAL OSCILLATION ENCOUNTERED
 ONE OR MORE CELL CONCENTRATIONS LESS THAN CRHOREF
 SMALLEST DENSITY =  0.100E+04
 AT CELL (I,J,K) = (   2,  61,  27)

>>>>>>> Stashed changes
 
 SOLVING FOR HEAD 
 FLOW MODEL IS TRANSIENT
 FLOW MODEL CONTAINS CONSTANT-HEAD CELLS


 MAXIMUM STEPSIZE DURING WHICH ANY PARTICLE CANNOT MOVE MORE THAN ONE CELL
<<<<<<< Updated upstream
 = 0.1633    (WHEN MIN. R.F.=1)  AT K=   3, I=   2, J=  29

 MAXIMUM STEPSIZE WHICH MEETS STABILITY CRITERION OF THE ADVECTION TERM
 (FOR PURE FINITE-DIFFERENCE OPTION, MIXELM=0) 
 = 0.1132    (WHEN MIN. R.F.=1)  AT K=   3, I=   2, J=  28
=======
 = 0.1870    (WHEN MIN. R.F.=1)  AT K=   3, I=   2, J=  31

 MAXIMUM STEPSIZE WHICH MEETS STABILITY CRITERION OF THE ADVECTION TERM
 (FOR PURE FINITE-DIFFERENCE OPTION, MIXELM=0) 
 = 0.1249    (WHEN MIN. R.F.=1)  AT K=   3, I=   2, J=  30
>>>>>>> Stashed changes


 TOTAL NUMBER OF POINT SOURCES/SINKS PRESENT IN THE FLOW MODEL =   240

 MAXIMUM STEPSIZE WHICH MEETS STABILITY CRITERION OF THE SINK & SOURCE TERM
 = 0.1000E+31(WHEN MIN. R.F.=1)  AT K=   0, I=   0, J=   0

 MAXIMUM STEPSIZE WHICH MEETS STABILITY CRITERION OF THE DISPERSION TERM
<<<<<<< Updated upstream
 = 0.6198E-02(WHEN MIN. R.F.=1)  AT K=   3, I=   2, J=  31
     1 CALLS TO GCG PACKAGE FOR TRANSPORT TIME STEP   6 IN FLOW TIME STEP  52 STRESS PERIOD   2
    15 TOTAL ITERATIONS
=======
 = 0.6702E-02(WHEN MIN. R.F.=1)  AT K=   3, I=   2, J=  30
     1 CALLS TO GCG PACKAGE FOR TRANSPORT TIME STEP   4 IN FLOW TIME STEP  47 STRESS PERIOD   2
    16 TOTAL ITERATIONS
0WARNING: NUMERICAL OSCILLATION ENCOUNTERED
 ONE OR MORE CELL CONCENTRATIONS LESS THAN CRHOREF
 SMALLEST DENSITY =  0.100E+04
 AT CELL (I,J,K) = (   2,  62,  27)

>>>>>>> Stashed changes
 
 SOLVING FOR HEAD 
 FLOW MODEL IS TRANSIENT
 FLOW MODEL CONTAINS CONSTANT-HEAD CELLS


 MAXIMUM STEPSIZE DURING WHICH ANY PARTICLE CANNOT MOVE MORE THAN ONE CELL
<<<<<<< Updated upstream
 = 0.1633    (WHEN MIN. R.F.=1)  AT K=   3, I=   2, J=  29

 MAXIMUM STEPSIZE WHICH MEETS STABILITY CRITERION OF THE ADVECTION TERM
 (FOR PURE FINITE-DIFFERENCE OPTION, MIXELM=0) 
 = 0.1132    (WHEN MIN. R.F.=1)  AT K=   3, I=   2, J=  28
=======
 = 0.1870    (WHEN MIN. R.F.=1)  AT K=   3, I=   2, J=  31

 MAXIMUM STEPSIZE WHICH MEETS STABILITY CRITERION OF THE ADVECTION TERM
 (FOR PURE FINITE-DIFFERENCE OPTION, MIXELM=0) 
 = 0.1249    (WHEN MIN. R.F.=1)  AT K=   3, I=   2, J=  30
>>>>>>> Stashed changes


 TOTAL NUMBER OF POINT SOURCES/SINKS PRESENT IN THE FLOW MODEL =   240

 MAXIMUM STEPSIZE WHICH MEETS STABILITY CRITERION OF THE SINK & SOURCE TERM
 = 0.1000E+31(WHEN MIN. R.F.=1)  AT K=   0, I=   0, J=   0

 MAXIMUM STEPSIZE WHICH MEETS STABILITY CRITERION OF THE DISPERSION TERM
<<<<<<< Updated upstream
 = 0.6198E-02(WHEN MIN. R.F.=1)  AT K=   3, I=   2, J=  31
     1 CALLS TO GCG PACKAGE FOR TRANSPORT TIME STEP   7 IN FLOW TIME STEP  52 STRESS PERIOD   2
    15 TOTAL ITERATIONS
=======
 = 0.6702E-02(WHEN MIN. R.F.=1)  AT K=   3, I=   2, J=  30
     1 CALLS TO GCG PACKAGE FOR TRANSPORT TIME STEP   5 IN FLOW TIME STEP  47 STRESS PERIOD   2
    16 TOTAL ITERATIONS
0WARNING: NUMERICAL OSCILLATION ENCOUNTERED
 ONE OR MORE CELL CONCENTRATIONS LESS THAN CRHOREF
 SMALLEST DENSITY =  0.100E+04
 AT CELL (I,J,K) = (   3,  61,  28)

>>>>>>> Stashed changes
 
 SOLVING FOR HEAD 
 FLOW MODEL IS TRANSIENT
 FLOW MODEL CONTAINS CONSTANT-HEAD CELLS


 MAXIMUM STEPSIZE DURING WHICH ANY PARTICLE CANNOT MOVE MORE THAN ONE CELL
<<<<<<< Updated upstream
 = 0.1633    (WHEN MIN. R.F.=1)  AT K=   3, I=   2, J=  29

 MAXIMUM STEPSIZE WHICH MEETS STABILITY CRITERION OF THE ADVECTION TERM
 (FOR PURE FINITE-DIFFERENCE OPTION, MIXELM=0) 
 = 0.1132    (WHEN MIN. R.F.=1)  AT K=   3, I=   2, J=  28
=======
 = 0.1870    (WHEN MIN. R.F.=1)  AT K=   3, I=   2, J=  31

 MAXIMUM STEPSIZE WHICH MEETS STABILITY CRITERION OF THE ADVECTION TERM
 (FOR PURE FINITE-DIFFERENCE OPTION, MIXELM=0) 
 = 0.1249    (WHEN MIN. R.F.=1)  AT K=   3, I=   2, J=  30
>>>>>>> Stashed changes


 TOTAL NUMBER OF POINT SOURCES/SINKS PRESENT IN THE FLOW MODEL =   240

 MAXIMUM STEPSIZE WHICH MEETS STABILITY CRITERION OF THE SINK & SOURCE TERM
 = 0.1000E+31(WHEN MIN. R.F.=1)  AT K=   0, I=   0, J=   0

 MAXIMUM STEPSIZE WHICH MEETS STABILITY CRITERION OF THE DISPERSION TERM
<<<<<<< Updated upstream
 = 0.6198E-02(WHEN MIN. R.F.=1)  AT K=   3, I=   2, J=  31
     1 CALLS TO GCG PACKAGE FOR TRANSPORT TIME STEP   8 IN FLOW TIME STEP  52 STRESS PERIOD   2
    15 TOTAL ITERATIONS
=======
 = 0.6701E-02(WHEN MIN. R.F.=1)  AT K=   3, I=   2, J=  30
     1 CALLS TO GCG PACKAGE FOR TRANSPORT TIME STEP   6 IN FLOW TIME STEP  47 STRESS PERIOD   2
    16 TOTAL ITERATIONS
0WARNING: NUMERICAL OSCILLATION ENCOUNTERED
 ONE OR MORE CELL CONCENTRATIONS LESS THAN CRHOREF
 SMALLEST DENSITY =  0.100E+04
 AT CELL (I,J,K) = (   3,  61,  28)

>>>>>>> Stashed changes
 
 SOLVING FOR HEAD 
 FLOW MODEL IS TRANSIENT
 FLOW MODEL CONTAINS CONSTANT-HEAD CELLS


 MAXIMUM STEPSIZE DURING WHICH ANY PARTICLE CANNOT MOVE MORE THAN ONE CELL
<<<<<<< Updated upstream
 = 0.1633    (WHEN MIN. R.F.=1)  AT K=   3, I=   2, J=  29

 MAXIMUM STEPSIZE WHICH MEETS STABILITY CRITERION OF THE ADVECTION TERM
 (FOR PURE FINITE-DIFFERENCE OPTION, MIXELM=0) 
 = 0.1132    (WHEN MIN. R.F.=1)  AT K=   3, I=   2, J=  28
=======
 = 0.1870    (WHEN MIN. R.F.=1)  AT K=   3, I=   2, J=  31

 MAXIMUM STEPSIZE WHICH MEETS STABILITY CRITERION OF THE ADVECTION TERM
 (FOR PURE FINITE-DIFFERENCE OPTION, MIXELM=0) 
 = 0.1249    (WHEN MIN. R.F.=1)  AT K=   3, I=   2, J=  30
>>>>>>> Stashed changes


 TOTAL NUMBER OF POINT SOURCES/SINKS PRESENT IN THE FLOW MODEL =   240

 MAXIMUM STEPSIZE WHICH MEETS STABILITY CRITERION OF THE SINK & SOURCE TERM
 = 0.1000E+31(WHEN MIN. R.F.=1)  AT K=   0, I=   0, J=   0

 MAXIMUM STEPSIZE WHICH MEETS STABILITY CRITERION OF THE DISPERSION TERM
<<<<<<< Updated upstream
 = 0.6198E-02(WHEN MIN. R.F.=1)  AT K=   3, I=   2, J=  31
     1 CALLS TO GCG PACKAGE FOR TRANSPORT TIME STEP   9 IN FLOW TIME STEP  52 STRESS PERIOD   2
     6 TOTAL ITERATIONS
  MAXIMUM CONCENTRATION CHANGES FOR EACH ITERATION:
  MAX. CHANGE LAYER,ROW,COL MAX. CHANGE LAYER,ROW,COL MAX. CHANGE LAYER,ROW,COL MAX. CHANGE LAYER,ROW,COL MAX. CHANGE LAYER,ROW,COL
 ------------------------------------------------------------------------------------------------------------------------------------
   0.1681E-03 ( 14,  3, 51)  0.9803E-05 (  5,  2, 63)  0.1999E-05 (  6,  1, 56)  0.5379E-06 (  3,  3, 31)  0.2470E-06 (  3,  3, 30)
   0.9705E-07 (  4,  3, 28)


                                          ================================================
                                                         FROM TIME =   53.000     TO    54.000    

=======
 = 0.6701E-02(WHEN MIN. R.F.=1)  AT K=   3, I=   2, J=  30
     1 CALLS TO GCG PACKAGE FOR TRANSPORT TIME STEP   7 IN FLOW TIME STEP  47 STRESS PERIOD   2
    18 TOTAL ITERATIONS
>>>>>>> Stashed changes
 
 SOLVING FOR HEAD 
 FLOW MODEL IS TRANSIENT
 FLOW MODEL CONTAINS CONSTANT-HEAD CELLS


 MAXIMUM STEPSIZE DURING WHICH ANY PARTICLE CANNOT MOVE MORE THAN ONE CELL
<<<<<<< Updated upstream
 = 0.1633    (WHEN MIN. R.F.=1)  AT K=   3, I=   2, J=  29

 MAXIMUM STEPSIZE WHICH MEETS STABILITY CRITERION OF THE ADVECTION TERM
 (FOR PURE FINITE-DIFFERENCE OPTION, MIXELM=0) 
 = 0.1132    (WHEN MIN. R.F.=1)  AT K=   3, I=   2, J=  28
=======
 = 0.1870    (WHEN MIN. R.F.=1)  AT K=   3, I=   2, J=  31

 MAXIMUM STEPSIZE WHICH MEETS STABILITY CRITERION OF THE ADVECTION TERM
 (FOR PURE FINITE-DIFFERENCE OPTION, MIXELM=0) 
 = 0.1249    (WHEN MIN. R.F.=1)  AT K=   3, I=   2, J=  30
>>>>>>> Stashed changes


 TOTAL NUMBER OF POINT SOURCES/SINKS PRESENT IN THE FLOW MODEL =   240

 MAXIMUM STEPSIZE WHICH MEETS STABILITY CRITERION OF THE SINK & SOURCE TERM
 = 0.1000E+31(WHEN MIN. R.F.=1)  AT K=   0, I=   0, J=   0

 MAXIMUM STEPSIZE WHICH MEETS STABILITY CRITERION OF THE DISPERSION TERM
<<<<<<< Updated upstream
 = 0.6198E-02(WHEN MIN. R.F.=1)  AT K=   3, I=   2, J=  31


     1 CALLS TO GCG PACKAGE FOR TRANSPORT TIME STEP   1 IN FLOW TIME STEP  53 STRESS PERIOD   2
    15 TOTAL ITERATIONS

 NO OUTPUT CONTROL FOR STRESS PERIOD    2   TIME STEP  53
=======
 = 0.6701E-02(WHEN MIN. R.F.=1)  AT K=   3, I=   2, J=  30
     1 CALLS TO GCG PACKAGE FOR TRANSPORT TIME STEP   8 IN FLOW TIME STEP  47 STRESS PERIOD   2
     6 TOTAL ITERATIONS
  MAXIMUM CONCENTRATION CHANGES FOR EACH ITERATION:
  MAX. CHANGE LAYER,ROW,COL MAX. CHANGE LAYER,ROW,COL MAX. CHANGE LAYER,ROW,COL MAX. CHANGE LAYER,ROW,COL MAX. CHANGE LAYER,ROW,COL
 ------------------------------------------------------------------------------------------------------------------------------------
   0.1666E-03 ( 14,  3, 46)  0.7489E-05 (  5,  2, 60)  0.1704E-05 (  4,  2, 44)  0.6414E-06 (  3,  2, 37)  0.1737E-06 (  4,  2, 37)
   0.6235E-07 (  3,  3, 27)
 UBDSV1 SAVING "         STORAGE" ON UNIT  53 AT TIME STEP 47, STRESS PERIOD   2
 UBDSV2 SAVING "   CONSTANT HEAD" ON UNIT  53 AT TIME STEP 47, STRESS PERIOD   2
 UBDSV1 SAVING "FLOW RIGHT FACE " ON UNIT  53 AT TIME STEP 47, STRESS PERIOD   2
 UBDSV1 SAVING "FLOW FRONT FACE " ON UNIT  53 AT TIME STEP 47, STRESS PERIOD   2
 UBDSV1 SAVING "FLOW LOWER FACE " ON UNIT  53 AT TIME STEP 47, STRESS PERIOD   2
 UBDSV1 SAVING "            DCDT" ON UNIT  53 AT TIME STEP 47, STRESS PERIOD   2

 HEAD WILL BE SAVED ON UNIT   51 AT END OF TIME STEP  47, STRESS PERIOD    2


                                          ================================================
                                                         FROM TIME =   48.000     TO    49.000    

>>>>>>> Stashed changes
 
 SOLVING FOR HEAD 
 FLOW MODEL IS TRANSIENT
 FLOW MODEL CONTAINS CONSTANT-HEAD CELLS


 MAXIMUM STEPSIZE DURING WHICH ANY PARTICLE CANNOT MOVE MORE THAN ONE CELL
<<<<<<< Updated upstream
 = 0.1633    (WHEN MIN. R.F.=1)  AT K=   3, I=   2, J=  29

 MAXIMUM STEPSIZE WHICH MEETS STABILITY CRITERION OF THE ADVECTION TERM
 (FOR PURE FINITE-DIFFERENCE OPTION, MIXELM=0) 
 = 0.1132    (WHEN MIN. R.F.=1)  AT K=   3, I=   2, J=  28
=======
 = 0.1870    (WHEN MIN. R.F.=1)  AT K=   3, I=   2, J=  31

 MAXIMUM STEPSIZE WHICH MEETS STABILITY CRITERION OF THE ADVECTION TERM
 (FOR PURE FINITE-DIFFERENCE OPTION, MIXELM=0) 
 = 0.1249    (WHEN MIN. R.F.=1)  AT K=   3, I=   2, J=  30
>>>>>>> Stashed changes


 TOTAL NUMBER OF POINT SOURCES/SINKS PRESENT IN THE FLOW MODEL =   240

 MAXIMUM STEPSIZE WHICH MEETS STABILITY CRITERION OF THE SINK & SOURCE TERM
 = 0.1000E+31(WHEN MIN. R.F.=1)  AT K=   0, I=   0, J=   0

 MAXIMUM STEPSIZE WHICH MEETS STABILITY CRITERION OF THE DISPERSION TERM
<<<<<<< Updated upstream
 = 0.6198E-02(WHEN MIN. R.F.=1)  AT K=   3, I=   2, J=  31
     1 CALLS TO GCG PACKAGE FOR TRANSPORT TIME STEP   2 IN FLOW TIME STEP  53 STRESS PERIOD   2
    15 TOTAL ITERATIONS
=======
 = 0.6701E-02(WHEN MIN. R.F.=1)  AT K=   3, I=   2, J=  30


     1 CALLS TO GCG PACKAGE FOR TRANSPORT TIME STEP   1 IN FLOW TIME STEP  48 STRESS PERIOD   2
    16 TOTAL ITERATIONS

 OUTPUT CONTROL FOR STRESS PERIOD    2   TIME STEP  48
    SAVE HEAD FOR ALL LAYERS
    SAVE BUDGET
>>>>>>> Stashed changes
 
 SOLVING FOR HEAD 
 FLOW MODEL IS TRANSIENT
 FLOW MODEL CONTAINS CONSTANT-HEAD CELLS


 MAXIMUM STEPSIZE DURING WHICH ANY PARTICLE CANNOT MOVE MORE THAN ONE CELL
<<<<<<< Updated upstream
 = 0.1633    (WHEN MIN. R.F.=1)  AT K=   3, I=   2, J=  29

 MAXIMUM STEPSIZE WHICH MEETS STABILITY CRITERION OF THE ADVECTION TERM
 (FOR PURE FINITE-DIFFERENCE OPTION, MIXELM=0) 
 = 0.1132    (WHEN MIN. R.F.=1)  AT K=   3, I=   2, J=  28
=======
 = 0.1870    (WHEN MIN. R.F.=1)  AT K=   3, I=   2, J=  31

 MAXIMUM STEPSIZE WHICH MEETS STABILITY CRITERION OF THE ADVECTION TERM
 (FOR PURE FINITE-DIFFERENCE OPTION, MIXELM=0) 
 = 0.1249    (WHEN MIN. R.F.=1)  AT K=   3, I=   2, J=  30
>>>>>>> Stashed changes


 TOTAL NUMBER OF POINT SOURCES/SINKS PRESENT IN THE FLOW MODEL =   240

 MAXIMUM STEPSIZE WHICH MEETS STABILITY CRITERION OF THE SINK & SOURCE TERM
 = 0.1000E+31(WHEN MIN. R.F.=1)  AT K=   0, I=   0, J=   0

 MAXIMUM STEPSIZE WHICH MEETS STABILITY CRITERION OF THE DISPERSION TERM
<<<<<<< Updated upstream
 = 0.6198E-02(WHEN MIN. R.F.=1)  AT K=   3, I=   2, J=  31
     1 CALLS TO GCG PACKAGE FOR TRANSPORT TIME STEP   3 IN FLOW TIME STEP  53 STRESS PERIOD   2
    15 TOTAL ITERATIONS
=======
 = 0.6701E-02(WHEN MIN. R.F.=1)  AT K=   3, I=   2, J=  30
     1 CALLS TO GCG PACKAGE FOR TRANSPORT TIME STEP   2 IN FLOW TIME STEP  48 STRESS PERIOD   2
    16 TOTAL ITERATIONS
>>>>>>> Stashed changes
 
 SOLVING FOR HEAD 
 FLOW MODEL IS TRANSIENT
 FLOW MODEL CONTAINS CONSTANT-HEAD CELLS


 MAXIMUM STEPSIZE DURING WHICH ANY PARTICLE CANNOT MOVE MORE THAN ONE CELL
<<<<<<< Updated upstream
 = 0.1633    (WHEN MIN. R.F.=1)  AT K=   3, I=   2, J=  29

 MAXIMUM STEPSIZE WHICH MEETS STABILITY CRITERION OF THE ADVECTION TERM
 (FOR PURE FINITE-DIFFERENCE OPTION, MIXELM=0) 
 = 0.1132    (WHEN MIN. R.F.=1)  AT K=   3, I=   2, J=  28
=======
 = 0.1870    (WHEN MIN. R.F.=1)  AT K=   3, I=   2, J=  31

 MAXIMUM STEPSIZE WHICH MEETS STABILITY CRITERION OF THE ADVECTION TERM
 (FOR PURE FINITE-DIFFERENCE OPTION, MIXELM=0) 
 = 0.1249    (WHEN MIN. R.F.=1)  AT K=   3, I=   2, J=  30
>>>>>>> Stashed changes


 TOTAL NUMBER OF POINT SOURCES/SINKS PRESENT IN THE FLOW MODEL =   240

 MAXIMUM STEPSIZE WHICH MEETS STABILITY CRITERION OF THE SINK & SOURCE TERM
 = 0.1000E+31(WHEN MIN. R.F.=1)  AT K=   0, I=   0, J=   0

 MAXIMUM STEPSIZE WHICH MEETS STABILITY CRITERION OF THE DISPERSION TERM
<<<<<<< Updated upstream
 = 0.6198E-02(WHEN MIN. R.F.=1)  AT K=   3, I=   2, J=  31
     1 CALLS TO GCG PACKAGE FOR TRANSPORT TIME STEP   4 IN FLOW TIME STEP  53 STRESS PERIOD   2
    15 TOTAL ITERATIONS
=======
 = 0.6701E-02(WHEN MIN. R.F.=1)  AT K=   3, I=   2, J=  30
     1 CALLS TO GCG PACKAGE FOR TRANSPORT TIME STEP   3 IN FLOW TIME STEP  48 STRESS PERIOD   2
    16 TOTAL ITERATIONS
>>>>>>> Stashed changes
 
 SOLVING FOR HEAD 
 FLOW MODEL IS TRANSIENT
 FLOW MODEL CONTAINS CONSTANT-HEAD CELLS


 MAXIMUM STEPSIZE DURING WHICH ANY PARTICLE CANNOT MOVE MORE THAN ONE CELL
<<<<<<< Updated upstream
 = 0.1633    (WHEN MIN. R.F.=1)  AT K=   3, I=   2, J=  29

 MAXIMUM STEPSIZE WHICH MEETS STABILITY CRITERION OF THE ADVECTION TERM
 (FOR PURE FINITE-DIFFERENCE OPTION, MIXELM=0) 
 = 0.1132    (WHEN MIN. R.F.=1)  AT K=   3, I=   2, J=  28
=======
 = 0.1870    (WHEN MIN. R.F.=1)  AT K=   3, I=   2, J=  31

 MAXIMUM STEPSIZE WHICH MEETS STABILITY CRITERION OF THE ADVECTION TERM
 (FOR PURE FINITE-DIFFERENCE OPTION, MIXELM=0) 
 = 0.1249    (WHEN MIN. R.F.=1)  AT K=   3, I=   2, J=  30
>>>>>>> Stashed changes


 TOTAL NUMBER OF POINT SOURCES/SINKS PRESENT IN THE FLOW MODEL =   240

 MAXIMUM STEPSIZE WHICH MEETS STABILITY CRITERION OF THE SINK & SOURCE TERM
 = 0.1000E+31(WHEN MIN. R.F.=1)  AT K=   0, I=   0, J=   0

 MAXIMUM STEPSIZE WHICH MEETS STABILITY CRITERION OF THE DISPERSION TERM
<<<<<<< Updated upstream
 = 0.6198E-02(WHEN MIN. R.F.=1)  AT K=   3, I=   2, J=  31
     1 CALLS TO GCG PACKAGE FOR TRANSPORT TIME STEP   5 IN FLOW TIME STEP  53 STRESS PERIOD   2
    15 TOTAL ITERATIONS
=======
 = 0.6701E-02(WHEN MIN. R.F.=1)  AT K=   3, I=   2, J=  30
     1 CALLS TO GCG PACKAGE FOR TRANSPORT TIME STEP   4 IN FLOW TIME STEP  48 STRESS PERIOD   2
    16 TOTAL ITERATIONS
>>>>>>> Stashed changes
 
 SOLVING FOR HEAD 
 FLOW MODEL IS TRANSIENT
 FLOW MODEL CONTAINS CONSTANT-HEAD CELLS


 MAXIMUM STEPSIZE DURING WHICH ANY PARTICLE CANNOT MOVE MORE THAN ONE CELL
<<<<<<< Updated upstream
 = 0.1633    (WHEN MIN. R.F.=1)  AT K=   3, I=   2, J=  29

 MAXIMUM STEPSIZE WHICH MEETS STABILITY CRITERION OF THE ADVECTION TERM
 (FOR PURE FINITE-DIFFERENCE OPTION, MIXELM=0) 
 = 0.1132    (WHEN MIN. R.F.=1)  AT K=   3, I=   2, J=  28
=======
 = 0.1870    (WHEN MIN. R.F.=1)  AT K=   3, I=   2, J=  31

 MAXIMUM STEPSIZE WHICH MEETS STABILITY CRITERION OF THE ADVECTION TERM
 (FOR PURE FINITE-DIFFERENCE OPTION, MIXELM=0) 
 = 0.1249    (WHEN MIN. R.F.=1)  AT K=   3, I=   2, J=  30
>>>>>>> Stashed changes


 TOTAL NUMBER OF POINT SOURCES/SINKS PRESENT IN THE FLOW MODEL =   240

 MAXIMUM STEPSIZE WHICH MEETS STABILITY CRITERION OF THE SINK & SOURCE TERM
 = 0.1000E+31(WHEN MIN. R.F.=1)  AT K=   0, I=   0, J=   0

 MAXIMUM STEPSIZE WHICH MEETS STABILITY CRITERION OF THE DISPERSION TERM
<<<<<<< Updated upstream
 = 0.6198E-02(WHEN MIN. R.F.=1)  AT K=   3, I=   2, J=  31
     1 CALLS TO GCG PACKAGE FOR TRANSPORT TIME STEP   6 IN FLOW TIME STEP  53 STRESS PERIOD   2
    15 TOTAL ITERATIONS
=======
 = 0.6701E-02(WHEN MIN. R.F.=1)  AT K=   3, I=   2, J=  30
     1 CALLS TO GCG PACKAGE FOR TRANSPORT TIME STEP   5 IN FLOW TIME STEP  48 STRESS PERIOD   2
    16 TOTAL ITERATIONS
>>>>>>> Stashed changes
 
 SOLVING FOR HEAD 
 FLOW MODEL IS TRANSIENT
 FLOW MODEL CONTAINS CONSTANT-HEAD CELLS


 MAXIMUM STEPSIZE DURING WHICH ANY PARTICLE CANNOT MOVE MORE THAN ONE CELL
<<<<<<< Updated upstream
 = 0.1633    (WHEN MIN. R.F.=1)  AT K=   3, I=   2, J=  29

 MAXIMUM STEPSIZE WHICH MEETS STABILITY CRITERION OF THE ADVECTION TERM
 (FOR PURE FINITE-DIFFERENCE OPTION, MIXELM=0) 
 = 0.1132    (WHEN MIN. R.F.=1)  AT K=   3, I=   2, J=  28
=======
 = 0.1870    (WHEN MIN. R.F.=1)  AT K=   3, I=   2, J=  31

 MAXIMUM STEPSIZE WHICH MEETS STABILITY CRITERION OF THE ADVECTION TERM
 (FOR PURE FINITE-DIFFERENCE OPTION, MIXELM=0) 
 = 0.1249    (WHEN MIN. R.F.=1)  AT K=   3, I=   2, J=  30
>>>>>>> Stashed changes


 TOTAL NUMBER OF POINT SOURCES/SINKS PRESENT IN THE FLOW MODEL =   240

 MAXIMUM STEPSIZE WHICH MEETS STABILITY CRITERION OF THE SINK & SOURCE TERM
 = 0.1000E+31(WHEN MIN. R.F.=1)  AT K=   0, I=   0, J=   0

 MAXIMUM STEPSIZE WHICH MEETS STABILITY CRITERION OF THE DISPERSION TERM
<<<<<<< Updated upstream
 = 0.6198E-02(WHEN MIN. R.F.=1)  AT K=   3, I=   2, J=  31
     1 CALLS TO GCG PACKAGE FOR TRANSPORT TIME STEP   7 IN FLOW TIME STEP  53 STRESS PERIOD   2
    15 TOTAL ITERATIONS
=======
 = 0.6701E-02(WHEN MIN. R.F.=1)  AT K=   3, I=   2, J=  30
     1 CALLS TO GCG PACKAGE FOR TRANSPORT TIME STEP   6 IN FLOW TIME STEP  48 STRESS PERIOD   2
    16 TOTAL ITERATIONS
>>>>>>> Stashed changes
 
 SOLVING FOR HEAD 
 FLOW MODEL IS TRANSIENT
 FLOW MODEL CONTAINS CONSTANT-HEAD CELLS


 MAXIMUM STEPSIZE DURING WHICH ANY PARTICLE CANNOT MOVE MORE THAN ONE CELL
<<<<<<< Updated upstream
 = 0.1633    (WHEN MIN. R.F.=1)  AT K=   3, I=   2, J=  29

 MAXIMUM STEPSIZE WHICH MEETS STABILITY CRITERION OF THE ADVECTION TERM
 (FOR PURE FINITE-DIFFERENCE OPTION, MIXELM=0) 
 = 0.1132    (WHEN MIN. R.F.=1)  AT K=   3, I=   2, J=  28
=======
 = 0.1870    (WHEN MIN. R.F.=1)  AT K=   3, I=   2, J=  31

 MAXIMUM STEPSIZE WHICH MEETS STABILITY CRITERION OF THE ADVECTION TERM
 (FOR PURE FINITE-DIFFERENCE OPTION, MIXELM=0) 
 = 0.1249    (WHEN MIN. R.F.=1)  AT K=   3, I=   2, J=  30
>>>>>>> Stashed changes


 TOTAL NUMBER OF POINT SOURCES/SINKS PRESENT IN THE FLOW MODEL =   240

 MAXIMUM STEPSIZE WHICH MEETS STABILITY CRITERION OF THE SINK & SOURCE TERM
 = 0.1000E+31(WHEN MIN. R.F.=1)  AT K=   0, I=   0, J=   0

 MAXIMUM STEPSIZE WHICH MEETS STABILITY CRITERION OF THE DISPERSION TERM
<<<<<<< Updated upstream
 = 0.6198E-02(WHEN MIN. R.F.=1)  AT K=   3, I=   2, J=  31
     1 CALLS TO GCG PACKAGE FOR TRANSPORT TIME STEP   8 IN FLOW TIME STEP  53 STRESS PERIOD   2
    15 TOTAL ITERATIONS
=======
 = 0.6701E-02(WHEN MIN. R.F.=1)  AT K=   3, I=   2, J=  30
     1 CALLS TO GCG PACKAGE FOR TRANSPORT TIME STEP   7 IN FLOW TIME STEP  48 STRESS PERIOD   2
    16 TOTAL ITERATIONS
>>>>>>> Stashed changes
 
 SOLVING FOR HEAD 
 FLOW MODEL IS TRANSIENT
 FLOW MODEL CONTAINS CONSTANT-HEAD CELLS


 MAXIMUM STEPSIZE DURING WHICH ANY PARTICLE CANNOT MOVE MORE THAN ONE CELL
<<<<<<< Updated upstream
 = 0.1633    (WHEN MIN. R.F.=1)  AT K=   3, I=   2, J=  29

 MAXIMUM STEPSIZE WHICH MEETS STABILITY CRITERION OF THE ADVECTION TERM
 (FOR PURE FINITE-DIFFERENCE OPTION, MIXELM=0) 
 = 0.1132    (WHEN MIN. R.F.=1)  AT K=   3, I=   2, J=  28
=======
 = 0.1870    (WHEN MIN. R.F.=1)  AT K=   3, I=   2, J=  31

 MAXIMUM STEPSIZE WHICH MEETS STABILITY CRITERION OF THE ADVECTION TERM
 (FOR PURE FINITE-DIFFERENCE OPTION, MIXELM=0) 
 = 0.1249    (WHEN MIN. R.F.=1)  AT K=   3, I=   2, J=  30
>>>>>>> Stashed changes


 TOTAL NUMBER OF POINT SOURCES/SINKS PRESENT IN THE FLOW MODEL =   240

 MAXIMUM STEPSIZE WHICH MEETS STABILITY CRITERION OF THE SINK & SOURCE TERM
 = 0.1000E+31(WHEN MIN. R.F.=1)  AT K=   0, I=   0, J=   0

 MAXIMUM STEPSIZE WHICH MEETS STABILITY CRITERION OF THE DISPERSION TERM
<<<<<<< Updated upstream
 = 0.6198E-02(WHEN MIN. R.F.=1)  AT K=   3, I=   2, J=  31
     1 CALLS TO GCG PACKAGE FOR TRANSPORT TIME STEP   9 IN FLOW TIME STEP  53 STRESS PERIOD   2
=======
 = 0.6701E-02(WHEN MIN. R.F.=1)  AT K=   3, I=   2, J=  30
     1 CALLS TO GCG PACKAGE FOR TRANSPORT TIME STEP   8 IN FLOW TIME STEP  48 STRESS PERIOD   2
>>>>>>> Stashed changes
     6 TOTAL ITERATIONS
  MAXIMUM CONCENTRATION CHANGES FOR EACH ITERATION:
  MAX. CHANGE LAYER,ROW,COL MAX. CHANGE LAYER,ROW,COL MAX. CHANGE LAYER,ROW,COL MAX. CHANGE LAYER,ROW,COL MAX. CHANGE LAYER,ROW,COL
 ------------------------------------------------------------------------------------------------------------------------------------
<<<<<<< Updated upstream
   0.1666E-03 ( 14,  3, 51)  0.9484E-05 (  5,  2, 63)  0.1929E-05 (  6,  1, 56)  0.5020E-06 (  3,  3, 31)  0.2329E-06 (  3,  3, 30)
   0.9203E-07 (  4,  3, 28)


                                          ================================================
                                                         FROM TIME =   54.000     TO    55.000    
=======
   0.1636E-03 ( 14,  3, 46)  0.7216E-05 (  5,  2, 60)  0.1628E-05 (  4,  2, 44)  0.6047E-06 (  3,  2, 37)  0.1711E-06 (  4,  1, 31)
   0.6763E-07 (  3,  1, 31)
 UBDSV1 SAVING "         STORAGE" ON UNIT  53 AT TIME STEP 48, STRESS PERIOD   2
 UBDSV2 SAVING "   CONSTANT HEAD" ON UNIT  53 AT TIME STEP 48, STRESS PERIOD   2
 UBDSV1 SAVING "FLOW RIGHT FACE " ON UNIT  53 AT TIME STEP 48, STRESS PERIOD   2
 UBDSV1 SAVING "FLOW FRONT FACE " ON UNIT  53 AT TIME STEP 48, STRESS PERIOD   2
 UBDSV1 SAVING "FLOW LOWER FACE " ON UNIT  53 AT TIME STEP 48, STRESS PERIOD   2
 UBDSV1 SAVING "            DCDT" ON UNIT  53 AT TIME STEP 48, STRESS PERIOD   2

 HEAD WILL BE SAVED ON UNIT   51 AT END OF TIME STEP  48, STRESS PERIOD    2


                                          ================================================
                                                         FROM TIME =   49.000     TO    50.000    
>>>>>>> Stashed changes

 
 SOLVING FOR HEAD 
 FLOW MODEL IS TRANSIENT
 FLOW MODEL CONTAINS CONSTANT-HEAD CELLS


 MAXIMUM STEPSIZE DURING WHICH ANY PARTICLE CANNOT MOVE MORE THAN ONE CELL
<<<<<<< Updated upstream
 = 0.1633    (WHEN MIN. R.F.=1)  AT K=   3, I=   2, J=  29

 MAXIMUM STEPSIZE WHICH MEETS STABILITY CRITERION OF THE ADVECTION TERM
 (FOR PURE FINITE-DIFFERENCE OPTION, MIXELM=0) 
 = 0.1132    (WHEN MIN. R.F.=1)  AT K=   3, I=   2, J=  28
=======
 = 0.1870    (WHEN MIN. R.F.=1)  AT K=   3, I=   2, J=  31

 MAXIMUM STEPSIZE WHICH MEETS STABILITY CRITERION OF THE ADVECTION TERM
 (FOR PURE FINITE-DIFFERENCE OPTION, MIXELM=0) 
 = 0.1249    (WHEN MIN. R.F.=1)  AT K=   3, I=   2, J=  30
>>>>>>> Stashed changes


 TOTAL NUMBER OF POINT SOURCES/SINKS PRESENT IN THE FLOW MODEL =   240

 MAXIMUM STEPSIZE WHICH MEETS STABILITY CRITERION OF THE SINK & SOURCE TERM
 = 0.1000E+31(WHEN MIN. R.F.=1)  AT K=   0, I=   0, J=   0

 MAXIMUM STEPSIZE WHICH MEETS STABILITY CRITERION OF THE DISPERSION TERM
<<<<<<< Updated upstream
 = 0.6198E-02(WHEN MIN. R.F.=1)  AT K=   3, I=   2, J=  31


     1 CALLS TO GCG PACKAGE FOR TRANSPORT TIME STEP   1 IN FLOW TIME STEP  54 STRESS PERIOD   2
    15 TOTAL ITERATIONS

 NO OUTPUT CONTROL FOR STRESS PERIOD    2   TIME STEP  54
=======
 = 0.6701E-02(WHEN MIN. R.F.=1)  AT K=   3, I=   2, J=  30


     1 CALLS TO GCG PACKAGE FOR TRANSPORT TIME STEP   1 IN FLOW TIME STEP  49 STRESS PERIOD   2
    16 TOTAL ITERATIONS

 OUTPUT CONTROL FOR STRESS PERIOD    2   TIME STEP  49
    SAVE HEAD FOR ALL LAYERS
    SAVE BUDGET
>>>>>>> Stashed changes
 
 SOLVING FOR HEAD 
 FLOW MODEL IS TRANSIENT
 FLOW MODEL CONTAINS CONSTANT-HEAD CELLS


 MAXIMUM STEPSIZE DURING WHICH ANY PARTICLE CANNOT MOVE MORE THAN ONE CELL
<<<<<<< Updated upstream
 = 0.1633    (WHEN MIN. R.F.=1)  AT K=   3, I=   2, J=  29

 MAXIMUM STEPSIZE WHICH MEETS STABILITY CRITERION OF THE ADVECTION TERM
 (FOR PURE FINITE-DIFFERENCE OPTION, MIXELM=0) 
 = 0.1132    (WHEN MIN. R.F.=1)  AT K=   3, I=   2, J=  28
=======
 = 0.1870    (WHEN MIN. R.F.=1)  AT K=   3, I=   2, J=  31

 MAXIMUM STEPSIZE WHICH MEETS STABILITY CRITERION OF THE ADVECTION TERM
 (FOR PURE FINITE-DIFFERENCE OPTION, MIXELM=0) 
 = 0.1249    (WHEN MIN. R.F.=1)  AT K=   3, I=   2, J=  30
>>>>>>> Stashed changes


 TOTAL NUMBER OF POINT SOURCES/SINKS PRESENT IN THE FLOW MODEL =   240

 MAXIMUM STEPSIZE WHICH MEETS STABILITY CRITERION OF THE SINK & SOURCE TERM
 = 0.1000E+31(WHEN MIN. R.F.=1)  AT K=   0, I=   0, J=   0

 MAXIMUM STEPSIZE WHICH MEETS STABILITY CRITERION OF THE DISPERSION TERM
<<<<<<< Updated upstream
 = 0.6198E-02(WHEN MIN. R.F.=1)  AT K=   3, I=   2, J=  31
     1 CALLS TO GCG PACKAGE FOR TRANSPORT TIME STEP   2 IN FLOW TIME STEP  54 STRESS PERIOD   2
    15 TOTAL ITERATIONS
=======
 = 0.6701E-02(WHEN MIN. R.F.=1)  AT K=   3, I=   2, J=  30
     1 CALLS TO GCG PACKAGE FOR TRANSPORT TIME STEP   2 IN FLOW TIME STEP  49 STRESS PERIOD   2
    16 TOTAL ITERATIONS
>>>>>>> Stashed changes
 
 SOLVING FOR HEAD 
 FLOW MODEL IS TRANSIENT
 FLOW MODEL CONTAINS CONSTANT-HEAD CELLS


 MAXIMUM STEPSIZE DURING WHICH ANY PARTICLE CANNOT MOVE MORE THAN ONE CELL
<<<<<<< Updated upstream
 = 0.1633    (WHEN MIN. R.F.=1)  AT K=   3, I=   2, J=  29

 MAXIMUM STEPSIZE WHICH MEETS STABILITY CRITERION OF THE ADVECTION TERM
 (FOR PURE FINITE-DIFFERENCE OPTION, MIXELM=0) 
 = 0.1132    (WHEN MIN. R.F.=1)  AT K=   3, I=   2, J=  28
=======
 = 0.1870    (WHEN MIN. R.F.=1)  AT K=   3, I=   2, J=  31

 MAXIMUM STEPSIZE WHICH MEETS STABILITY CRITERION OF THE ADVECTION TERM
 (FOR PURE FINITE-DIFFERENCE OPTION, MIXELM=0) 
 = 0.1249    (WHEN MIN. R.F.=1)  AT K=   3, I=   2, J=  30
>>>>>>> Stashed changes


 TOTAL NUMBER OF POINT SOURCES/SINKS PRESENT IN THE FLOW MODEL =   240

 MAXIMUM STEPSIZE WHICH MEETS STABILITY CRITERION OF THE SINK & SOURCE TERM
 = 0.1000E+31(WHEN MIN. R.F.=1)  AT K=   0, I=   0, J=   0

 MAXIMUM STEPSIZE WHICH MEETS STABILITY CRITERION OF THE DISPERSION TERM
<<<<<<< Updated upstream
 = 0.6198E-02(WHEN MIN. R.F.=1)  AT K=   3, I=   2, J=  31
     1 CALLS TO GCG PACKAGE FOR TRANSPORT TIME STEP   3 IN FLOW TIME STEP  54 STRESS PERIOD   2
    15 TOTAL ITERATIONS
=======
 = 0.6701E-02(WHEN MIN. R.F.=1)  AT K=   3, I=   2, J=  30
     1 CALLS TO GCG PACKAGE FOR TRANSPORT TIME STEP   3 IN FLOW TIME STEP  49 STRESS PERIOD   2
    16 TOTAL ITERATIONS
>>>>>>> Stashed changes
 
 SOLVING FOR HEAD 
 FLOW MODEL IS TRANSIENT
 FLOW MODEL CONTAINS CONSTANT-HEAD CELLS


 MAXIMUM STEPSIZE DURING WHICH ANY PARTICLE CANNOT MOVE MORE THAN ONE CELL
<<<<<<< Updated upstream
 = 0.1633    (WHEN MIN. R.F.=1)  AT K=   3, I=   2, J=  29

 MAXIMUM STEPSIZE WHICH MEETS STABILITY CRITERION OF THE ADVECTION TERM
 (FOR PURE FINITE-DIFFERENCE OPTION, MIXELM=0) 
 = 0.1132    (WHEN MIN. R.F.=1)  AT K=   3, I=   2, J=  28
=======
 = 0.1870    (WHEN MIN. R.F.=1)  AT K=   3, I=   2, J=  31

 MAXIMUM STEPSIZE WHICH MEETS STABILITY CRITERION OF THE ADVECTION TERM
 (FOR PURE FINITE-DIFFERENCE OPTION, MIXELM=0) 
 = 0.1249    (WHEN MIN. R.F.=1)  AT K=   3, I=   2, J=  30
>>>>>>> Stashed changes


 TOTAL NUMBER OF POINT SOURCES/SINKS PRESENT IN THE FLOW MODEL =   240

 MAXIMUM STEPSIZE WHICH MEETS STABILITY CRITERION OF THE SINK & SOURCE TERM
 = 0.1000E+31(WHEN MIN. R.F.=1)  AT K=   0, I=   0, J=   0

 MAXIMUM STEPSIZE WHICH MEETS STABILITY CRITERION OF THE DISPERSION TERM
<<<<<<< Updated upstream
 = 0.6198E-02(WHEN MIN. R.F.=1)  AT K=   3, I=   2, J=  31
     1 CALLS TO GCG PACKAGE FOR TRANSPORT TIME STEP   4 IN FLOW TIME STEP  54 STRESS PERIOD   2
    15 TOTAL ITERATIONS
=======
 = 0.6701E-02(WHEN MIN. R.F.=1)  AT K=   3, I=   2, J=  30
     1 CALLS TO GCG PACKAGE FOR TRANSPORT TIME STEP   4 IN FLOW TIME STEP  49 STRESS PERIOD   2
    16 TOTAL ITERATIONS
>>>>>>> Stashed changes
 
 SOLVING FOR HEAD 
 FLOW MODEL IS TRANSIENT
 FLOW MODEL CONTAINS CONSTANT-HEAD CELLS


 MAXIMUM STEPSIZE DURING WHICH ANY PARTICLE CANNOT MOVE MORE THAN ONE CELL
<<<<<<< Updated upstream
 = 0.1633    (WHEN MIN. R.F.=1)  AT K=   3, I=   2, J=  29

 MAXIMUM STEPSIZE WHICH MEETS STABILITY CRITERION OF THE ADVECTION TERM
 (FOR PURE FINITE-DIFFERENCE OPTION, MIXELM=0) 
 = 0.1132    (WHEN MIN. R.F.=1)  AT K=   3, I=   2, J=  28
=======
 = 0.1870    (WHEN MIN. R.F.=1)  AT K=   3, I=   2, J=  31

 MAXIMUM STEPSIZE WHICH MEETS STABILITY CRITERION OF THE ADVECTION TERM
 (FOR PURE FINITE-DIFFERENCE OPTION, MIXELM=0) 
 = 0.1249    (WHEN MIN. R.F.=1)  AT K=   3, I=   2, J=  30
>>>>>>> Stashed changes


 TOTAL NUMBER OF POINT SOURCES/SINKS PRESENT IN THE FLOW MODEL =   240

 MAXIMUM STEPSIZE WHICH MEETS STABILITY CRITERION OF THE SINK & SOURCE TERM
 = 0.1000E+31(WHEN MIN. R.F.=1)  AT K=   0, I=   0, J=   0

 MAXIMUM STEPSIZE WHICH MEETS STABILITY CRITERION OF THE DISPERSION TERM
<<<<<<< Updated upstream
 = 0.6198E-02(WHEN MIN. R.F.=1)  AT K=   3, I=   2, J=  31
     1 CALLS TO GCG PACKAGE FOR TRANSPORT TIME STEP   5 IN FLOW TIME STEP  54 STRESS PERIOD   2
    15 TOTAL ITERATIONS
=======
 = 0.6701E-02(WHEN MIN. R.F.=1)  AT K=   3, I=   2, J=  30
     1 CALLS TO GCG PACKAGE FOR TRANSPORT TIME STEP   5 IN FLOW TIME STEP  49 STRESS PERIOD   2
    16 TOTAL ITERATIONS
>>>>>>> Stashed changes
 
 SOLVING FOR HEAD 
 FLOW MODEL IS TRANSIENT
 FLOW MODEL CONTAINS CONSTANT-HEAD CELLS


 MAXIMUM STEPSIZE DURING WHICH ANY PARTICLE CANNOT MOVE MORE THAN ONE CELL
<<<<<<< Updated upstream
 = 0.1633    (WHEN MIN. R.F.=1)  AT K=   3, I=   2, J=  29

 MAXIMUM STEPSIZE WHICH MEETS STABILITY CRITERION OF THE ADVECTION TERM
 (FOR PURE FINITE-DIFFERENCE OPTION, MIXELM=0) 
 = 0.1132    (WHEN MIN. R.F.=1)  AT K=   3, I=   2, J=  28
=======
 = 0.1870    (WHEN MIN. R.F.=1)  AT K=   3, I=   2, J=  31

 MAXIMUM STEPSIZE WHICH MEETS STABILITY CRITERION OF THE ADVECTION TERM
 (FOR PURE FINITE-DIFFERENCE OPTION, MIXELM=0) 
 = 0.1249    (WHEN MIN. R.F.=1)  AT K=   3, I=   2, J=  30
>>>>>>> Stashed changes


 TOTAL NUMBER OF POINT SOURCES/SINKS PRESENT IN THE FLOW MODEL =   240

 MAXIMUM STEPSIZE WHICH MEETS STABILITY CRITERION OF THE SINK & SOURCE TERM
 = 0.1000E+31(WHEN MIN. R.F.=1)  AT K=   0, I=   0, J=   0

 MAXIMUM STEPSIZE WHICH MEETS STABILITY CRITERION OF THE DISPERSION TERM
<<<<<<< Updated upstream
 = 0.6198E-02(WHEN MIN. R.F.=1)  AT K=   3, I=   2, J=  31
     1 CALLS TO GCG PACKAGE FOR TRANSPORT TIME STEP   6 IN FLOW TIME STEP  54 STRESS PERIOD   2
    15 TOTAL ITERATIONS
=======
 = 0.6701E-02(WHEN MIN. R.F.=1)  AT K=   3, I=   2, J=  30
     1 CALLS TO GCG PACKAGE FOR TRANSPORT TIME STEP   6 IN FLOW TIME STEP  49 STRESS PERIOD   2
    16 TOTAL ITERATIONS
>>>>>>> Stashed changes
 
 SOLVING FOR HEAD 
 FLOW MODEL IS TRANSIENT
 FLOW MODEL CONTAINS CONSTANT-HEAD CELLS


 MAXIMUM STEPSIZE DURING WHICH ANY PARTICLE CANNOT MOVE MORE THAN ONE CELL
<<<<<<< Updated upstream
 = 0.1633    (WHEN MIN. R.F.=1)  AT K=   3, I=   2, J=  29

 MAXIMUM STEPSIZE WHICH MEETS STABILITY CRITERION OF THE ADVECTION TERM
 (FOR PURE FINITE-DIFFERENCE OPTION, MIXELM=0) 
 = 0.1132    (WHEN MIN. R.F.=1)  AT K=   3, I=   2, J=  28
=======
 = 0.1870    (WHEN MIN. R.F.=1)  AT K=   3, I=   2, J=  31

 MAXIMUM STEPSIZE WHICH MEETS STABILITY CRITERION OF THE ADVECTION TERM
 (FOR PURE FINITE-DIFFERENCE OPTION, MIXELM=0) 
 = 0.1249    (WHEN MIN. R.F.=1)  AT K=   3, I=   2, J=  30
>>>>>>> Stashed changes


 TOTAL NUMBER OF POINT SOURCES/SINKS PRESENT IN THE FLOW MODEL =   240

 MAXIMUM STEPSIZE WHICH MEETS STABILITY CRITERION OF THE SINK & SOURCE TERM
 = 0.1000E+31(WHEN MIN. R.F.=1)  AT K=   0, I=   0, J=   0

 MAXIMUM STEPSIZE WHICH MEETS STABILITY CRITERION OF THE DISPERSION TERM
<<<<<<< Updated upstream
 = 0.6198E-02(WHEN MIN. R.F.=1)  AT K=   3, I=   2, J=  31
     1 CALLS TO GCG PACKAGE FOR TRANSPORT TIME STEP   7 IN FLOW TIME STEP  54 STRESS PERIOD   2
    15 TOTAL ITERATIONS
=======
 = 0.6701E-02(WHEN MIN. R.F.=1)  AT K=   3, I=   2, J=  30
     1 CALLS TO GCG PACKAGE FOR TRANSPORT TIME STEP   7 IN FLOW TIME STEP  49 STRESS PERIOD   2
    16 TOTAL ITERATIONS
>>>>>>> Stashed changes
 
 SOLVING FOR HEAD 
 FLOW MODEL IS TRANSIENT
 FLOW MODEL CONTAINS CONSTANT-HEAD CELLS


 MAXIMUM STEPSIZE DURING WHICH ANY PARTICLE CANNOT MOVE MORE THAN ONE CELL
<<<<<<< Updated upstream
 = 0.1633    (WHEN MIN. R.F.=1)  AT K=   3, I=   2, J=  29

 MAXIMUM STEPSIZE WHICH MEETS STABILITY CRITERION OF THE ADVECTION TERM
 (FOR PURE FINITE-DIFFERENCE OPTION, MIXELM=0) 
 = 0.1132    (WHEN MIN. R.F.=1)  AT K=   3, I=   2, J=  28
=======
 = 0.1870    (WHEN MIN. R.F.=1)  AT K=   3, I=   2, J=  31

 MAXIMUM STEPSIZE WHICH MEETS STABILITY CRITERION OF THE ADVECTION TERM
 (FOR PURE FINITE-DIFFERENCE OPTION, MIXELM=0) 
 = 0.1249    (WHEN MIN. R.F.=1)  AT K=   3, I=   2, J=  30
>>>>>>> Stashed changes


 TOTAL NUMBER OF POINT SOURCES/SINKS PRESENT IN THE FLOW MODEL =   240

 MAXIMUM STEPSIZE WHICH MEETS STABILITY CRITERION OF THE SINK & SOURCE TERM
 = 0.1000E+31(WHEN MIN. R.F.=1)  AT K=   0, I=   0, J=   0

 MAXIMUM STEPSIZE WHICH MEETS STABILITY CRITERION OF THE DISPERSION TERM
<<<<<<< Updated upstream
 = 0.6198E-02(WHEN MIN. R.F.=1)  AT K=   3, I=   2, J=  31
     1 CALLS TO GCG PACKAGE FOR TRANSPORT TIME STEP   8 IN FLOW TIME STEP  54 STRESS PERIOD   2
    15 TOTAL ITERATIONS
=======
 = 0.6701E-02(WHEN MIN. R.F.=1)  AT K=   3, I=   2, J=  30
     1 CALLS TO GCG PACKAGE FOR TRANSPORT TIME STEP   8 IN FLOW TIME STEP  49 STRESS PERIOD   2
     6 TOTAL ITERATIONS
  MAXIMUM CONCENTRATION CHANGES FOR EACH ITERATION:
  MAX. CHANGE LAYER,ROW,COL MAX. CHANGE LAYER,ROW,COL MAX. CHANGE LAYER,ROW,COL MAX. CHANGE LAYER,ROW,COL MAX. CHANGE LAYER,ROW,COL
 ------------------------------------------------------------------------------------------------------------------------------------
   0.1605E-03 ( 14,  3, 46)  0.6955E-05 (  5,  2, 60)  0.1559E-05 (  4,  2, 44)  0.5751E-06 (  3,  2, 37)  0.1655E-06 (  4,  1, 31)
   0.6608E-07 (  3,  1, 31)
 UBDSV1 SAVING "         STORAGE" ON UNIT  53 AT TIME STEP 49, STRESS PERIOD   2
 UBDSV2 SAVING "   CONSTANT HEAD" ON UNIT  53 AT TIME STEP 49, STRESS PERIOD   2
 UBDSV1 SAVING "FLOW RIGHT FACE " ON UNIT  53 AT TIME STEP 49, STRESS PERIOD   2
 UBDSV1 SAVING "FLOW FRONT FACE " ON UNIT  53 AT TIME STEP 49, STRESS PERIOD   2
 UBDSV1 SAVING "FLOW LOWER FACE " ON UNIT  53 AT TIME STEP 49, STRESS PERIOD   2
 UBDSV1 SAVING "            DCDT" ON UNIT  53 AT TIME STEP 49, STRESS PERIOD   2

 HEAD WILL BE SAVED ON UNIT   51 AT END OF TIME STEP  49, STRESS PERIOD    2


                                          ================================================
                                                         FROM TIME =   50.000     TO    51.000    

>>>>>>> Stashed changes
 
 SOLVING FOR HEAD 
 FLOW MODEL IS TRANSIENT
 FLOW MODEL CONTAINS CONSTANT-HEAD CELLS


 MAXIMUM STEPSIZE DURING WHICH ANY PARTICLE CANNOT MOVE MORE THAN ONE CELL
<<<<<<< Updated upstream
 = 0.1633    (WHEN MIN. R.F.=1)  AT K=   3, I=   2, J=  29

 MAXIMUM STEPSIZE WHICH MEETS STABILITY CRITERION OF THE ADVECTION TERM
 (FOR PURE FINITE-DIFFERENCE OPTION, MIXELM=0) 
 = 0.1132    (WHEN MIN. R.F.=1)  AT K=   3, I=   2, J=  28
=======
 = 0.1870    (WHEN MIN. R.F.=1)  AT K=   3, I=   2, J=  31

 MAXIMUM STEPSIZE WHICH MEETS STABILITY CRITERION OF THE ADVECTION TERM
 (FOR PURE FINITE-DIFFERENCE OPTION, MIXELM=0) 
 = 0.1249    (WHEN MIN. R.F.=1)  AT K=   3, I=   2, J=  30
>>>>>>> Stashed changes


 TOTAL NUMBER OF POINT SOURCES/SINKS PRESENT IN THE FLOW MODEL =   240

 MAXIMUM STEPSIZE WHICH MEETS STABILITY CRITERION OF THE SINK & SOURCE TERM
 = 0.1000E+31(WHEN MIN. R.F.=1)  AT K=   0, I=   0, J=   0

 MAXIMUM STEPSIZE WHICH MEETS STABILITY CRITERION OF THE DISPERSION TERM
<<<<<<< Updated upstream
 = 0.6198E-02(WHEN MIN. R.F.=1)  AT K=   3, I=   2, J=  31
     1 CALLS TO GCG PACKAGE FOR TRANSPORT TIME STEP   9 IN FLOW TIME STEP  54 STRESS PERIOD   2
     6 TOTAL ITERATIONS
  MAXIMUM CONCENTRATION CHANGES FOR EACH ITERATION:
  MAX. CHANGE LAYER,ROW,COL MAX. CHANGE LAYER,ROW,COL MAX. CHANGE LAYER,ROW,COL MAX. CHANGE LAYER,ROW,COL MAX. CHANGE LAYER,ROW,COL
 ------------------------------------------------------------------------------------------------------------------------------------
   0.1650E-03 ( 14,  3, 51)  0.9177E-05 (  5,  2, 63)  0.1862E-05 (  6,  1, 56)  0.4675E-06 (  3,  3, 31)  0.2193E-06 (  3,  3, 30)
   0.8713E-07 (  4,  3, 28)


                                          ================================================
                                                         FROM TIME =   55.000     TO    56.000    

=======
 = 0.6701E-02(WHEN MIN. R.F.=1)  AT K=   3, I=   2, J=  30


     1 CALLS TO GCG PACKAGE FOR TRANSPORT TIME STEP   1 IN FLOW TIME STEP  50 STRESS PERIOD   2
    16 TOTAL ITERATIONS

 OUTPUT CONTROL FOR STRESS PERIOD    2   TIME STEP  50
    SAVE HEAD FOR ALL LAYERS
    SAVE BUDGET
>>>>>>> Stashed changes
 
 SOLVING FOR HEAD 
 FLOW MODEL IS TRANSIENT
 FLOW MODEL CONTAINS CONSTANT-HEAD CELLS


 MAXIMUM STEPSIZE DURING WHICH ANY PARTICLE CANNOT MOVE MORE THAN ONE CELL
<<<<<<< Updated upstream
 = 0.1633    (WHEN MIN. R.F.=1)  AT K=   3, I=   2, J=  29

 MAXIMUM STEPSIZE WHICH MEETS STABILITY CRITERION OF THE ADVECTION TERM
 (FOR PURE FINITE-DIFFERENCE OPTION, MIXELM=0) 
 = 0.1132    (WHEN MIN. R.F.=1)  AT K=   3, I=   2, J=  28
=======
 = 0.1870    (WHEN MIN. R.F.=1)  AT K=   3, I=   2, J=  31

 MAXIMUM STEPSIZE WHICH MEETS STABILITY CRITERION OF THE ADVECTION TERM
 (FOR PURE FINITE-DIFFERENCE OPTION, MIXELM=0) 
 = 0.1249    (WHEN MIN. R.F.=1)  AT K=   3, I=   2, J=  30
>>>>>>> Stashed changes


 TOTAL NUMBER OF POINT SOURCES/SINKS PRESENT IN THE FLOW MODEL =   240

 MAXIMUM STEPSIZE WHICH MEETS STABILITY CRITERION OF THE SINK & SOURCE TERM
 = 0.1000E+31(WHEN MIN. R.F.=1)  AT K=   0, I=   0, J=   0

 MAXIMUM STEPSIZE WHICH MEETS STABILITY CRITERION OF THE DISPERSION TERM
<<<<<<< Updated upstream
 = 0.6198E-02(WHEN MIN. R.F.=1)  AT K=   3, I=   2, J=  31


     1 CALLS TO GCG PACKAGE FOR TRANSPORT TIME STEP   1 IN FLOW TIME STEP  55 STRESS PERIOD   2
    15 TOTAL ITERATIONS

 NO OUTPUT CONTROL FOR STRESS PERIOD    2   TIME STEP  55
=======
 = 0.6701E-02(WHEN MIN. R.F.=1)  AT K=   3, I=   2, J=  30
     1 CALLS TO GCG PACKAGE FOR TRANSPORT TIME STEP   2 IN FLOW TIME STEP  50 STRESS PERIOD   2
    16 TOTAL ITERATIONS
>>>>>>> Stashed changes
 
 SOLVING FOR HEAD 
 FLOW MODEL IS TRANSIENT
 FLOW MODEL CONTAINS CONSTANT-HEAD CELLS


 MAXIMUM STEPSIZE DURING WHICH ANY PARTICLE CANNOT MOVE MORE THAN ONE CELL
<<<<<<< Updated upstream
 = 0.1633    (WHEN MIN. R.F.=1)  AT K=   3, I=   2, J=  29

 MAXIMUM STEPSIZE WHICH MEETS STABILITY CRITERION OF THE ADVECTION TERM
 (FOR PURE FINITE-DIFFERENCE OPTION, MIXELM=0) 
 = 0.1132    (WHEN MIN. R.F.=1)  AT K=   3, I=   2, J=  28
=======
 = 0.1870    (WHEN MIN. R.F.=1)  AT K=   3, I=   2, J=  31

 MAXIMUM STEPSIZE WHICH MEETS STABILITY CRITERION OF THE ADVECTION TERM
 (FOR PURE FINITE-DIFFERENCE OPTION, MIXELM=0) 
 = 0.1249    (WHEN MIN. R.F.=1)  AT K=   3, I=   2, J=  30
>>>>>>> Stashed changes


 TOTAL NUMBER OF POINT SOURCES/SINKS PRESENT IN THE FLOW MODEL =   240

 MAXIMUM STEPSIZE WHICH MEETS STABILITY CRITERION OF THE SINK & SOURCE TERM
 = 0.1000E+31(WHEN MIN. R.F.=1)  AT K=   0, I=   0, J=   0

 MAXIMUM STEPSIZE WHICH MEETS STABILITY CRITERION OF THE DISPERSION TERM
<<<<<<< Updated upstream
 = 0.6198E-02(WHEN MIN. R.F.=1)  AT K=   3, I=   2, J=  31
     1 CALLS TO GCG PACKAGE FOR TRANSPORT TIME STEP   2 IN FLOW TIME STEP  55 STRESS PERIOD   2
    15 TOTAL ITERATIONS
=======
 = 0.6701E-02(WHEN MIN. R.F.=1)  AT K=   3, I=   2, J=  30
     1 CALLS TO GCG PACKAGE FOR TRANSPORT TIME STEP   3 IN FLOW TIME STEP  50 STRESS PERIOD   2
    16 TOTAL ITERATIONS
>>>>>>> Stashed changes
 
 SOLVING FOR HEAD 
 FLOW MODEL IS TRANSIENT
 FLOW MODEL CONTAINS CONSTANT-HEAD CELLS


 MAXIMUM STEPSIZE DURING WHICH ANY PARTICLE CANNOT MOVE MORE THAN ONE CELL
<<<<<<< Updated upstream
 = 0.1633    (WHEN MIN. R.F.=1)  AT K=   3, I=   2, J=  29

 MAXIMUM STEPSIZE WHICH MEETS STABILITY CRITERION OF THE ADVECTION TERM
 (FOR PURE FINITE-DIFFERENCE OPTION, MIXELM=0) 
 = 0.1132    (WHEN MIN. R.F.=1)  AT K=   3, I=   2, J=  28
=======
 = 0.1870    (WHEN MIN. R.F.=1)  AT K=   3, I=   2, J=  31

 MAXIMUM STEPSIZE WHICH MEETS STABILITY CRITERION OF THE ADVECTION TERM
 (FOR PURE FINITE-DIFFERENCE OPTION, MIXELM=0) 
 = 0.1249    (WHEN MIN. R.F.=1)  AT K=   3, I=   2, J=  30
>>>>>>> Stashed changes


 TOTAL NUMBER OF POINT SOURCES/SINKS PRESENT IN THE FLOW MODEL =   240

 MAXIMUM STEPSIZE WHICH MEETS STABILITY CRITERION OF THE SINK & SOURCE TERM
 = 0.1000E+31(WHEN MIN. R.F.=1)  AT K=   0, I=   0, J=   0

 MAXIMUM STEPSIZE WHICH MEETS STABILITY CRITERION OF THE DISPERSION TERM
<<<<<<< Updated upstream
 = 0.6198E-02(WHEN MIN. R.F.=1)  AT K=   3, I=   2, J=  31
     1 CALLS TO GCG PACKAGE FOR TRANSPORT TIME STEP   3 IN FLOW TIME STEP  55 STRESS PERIOD   2
    15 TOTAL ITERATIONS
=======
 = 0.6701E-02(WHEN MIN. R.F.=1)  AT K=   3, I=   2, J=  30
     1 CALLS TO GCG PACKAGE FOR TRANSPORT TIME STEP   4 IN FLOW TIME STEP  50 STRESS PERIOD   2
    16 TOTAL ITERATIONS
>>>>>>> Stashed changes
 
 SOLVING FOR HEAD 
 FLOW MODEL IS TRANSIENT
 FLOW MODEL CONTAINS CONSTANT-HEAD CELLS


 MAXIMUM STEPSIZE DURING WHICH ANY PARTICLE CANNOT MOVE MORE THAN ONE CELL
<<<<<<< Updated upstream
 = 0.1633    (WHEN MIN. R.F.=1)  AT K=   3, I=   2, J=  29

 MAXIMUM STEPSIZE WHICH MEETS STABILITY CRITERION OF THE ADVECTION TERM
 (FOR PURE FINITE-DIFFERENCE OPTION, MIXELM=0) 
 = 0.1132    (WHEN MIN. R.F.=1)  AT K=   3, I=   2, J=  28
=======
 = 0.1870    (WHEN MIN. R.F.=1)  AT K=   3, I=   2, J=  31

 MAXIMUM STEPSIZE WHICH MEETS STABILITY CRITERION OF THE ADVECTION TERM
 (FOR PURE FINITE-DIFFERENCE OPTION, MIXELM=0) 
 = 0.1249    (WHEN MIN. R.F.=1)  AT K=   3, I=   2, J=  30
>>>>>>> Stashed changes


 TOTAL NUMBER OF POINT SOURCES/SINKS PRESENT IN THE FLOW MODEL =   240

 MAXIMUM STEPSIZE WHICH MEETS STABILITY CRITERION OF THE SINK & SOURCE TERM
 = 0.1000E+31(WHEN MIN. R.F.=1)  AT K=   0, I=   0, J=   0

 MAXIMUM STEPSIZE WHICH MEETS STABILITY CRITERION OF THE DISPERSION TERM
<<<<<<< Updated upstream
 = 0.6198E-02(WHEN MIN. R.F.=1)  AT K=   3, I=   2, J=  31
     1 CALLS TO GCG PACKAGE FOR TRANSPORT TIME STEP   4 IN FLOW TIME STEP  55 STRESS PERIOD   2
    15 TOTAL ITERATIONS
=======
 = 0.6701E-02(WHEN MIN. R.F.=1)  AT K=   3, I=   2, J=  30
     1 CALLS TO GCG PACKAGE FOR TRANSPORT TIME STEP   5 IN FLOW TIME STEP  50 STRESS PERIOD   2
    16 TOTAL ITERATIONS
>>>>>>> Stashed changes
 
 SOLVING FOR HEAD 
 FLOW MODEL IS TRANSIENT
 FLOW MODEL CONTAINS CONSTANT-HEAD CELLS


 MAXIMUM STEPSIZE DURING WHICH ANY PARTICLE CANNOT MOVE MORE THAN ONE CELL
<<<<<<< Updated upstream
 = 0.1633    (WHEN MIN. R.F.=1)  AT K=   3, I=   2, J=  29

 MAXIMUM STEPSIZE WHICH MEETS STABILITY CRITERION OF THE ADVECTION TERM
 (FOR PURE FINITE-DIFFERENCE OPTION, MIXELM=0) 
 = 0.1132    (WHEN MIN. R.F.=1)  AT K=   3, I=   2, J=  28
=======
 = 0.1870    (WHEN MIN. R.F.=1)  AT K=   3, I=   2, J=  31

 MAXIMUM STEPSIZE WHICH MEETS STABILITY CRITERION OF THE ADVECTION TERM
 (FOR PURE FINITE-DIFFERENCE OPTION, MIXELM=0) 
 = 0.1249    (WHEN MIN. R.F.=1)  AT K=   3, I=   2, J=  30
>>>>>>> Stashed changes


 TOTAL NUMBER OF POINT SOURCES/SINKS PRESENT IN THE FLOW MODEL =   240

 MAXIMUM STEPSIZE WHICH MEETS STABILITY CRITERION OF THE SINK & SOURCE TERM
 = 0.1000E+31(WHEN MIN. R.F.=1)  AT K=   0, I=   0, J=   0

 MAXIMUM STEPSIZE WHICH MEETS STABILITY CRITERION OF THE DISPERSION TERM
<<<<<<< Updated upstream
 = 0.6198E-02(WHEN MIN. R.F.=1)  AT K=   3, I=   2, J=  31
     1 CALLS TO GCG PACKAGE FOR TRANSPORT TIME STEP   5 IN FLOW TIME STEP  55 STRESS PERIOD   2
    15 TOTAL ITERATIONS
=======
 = 0.6701E-02(WHEN MIN. R.F.=1)  AT K=   3, I=   2, J=  30
     1 CALLS TO GCG PACKAGE FOR TRANSPORT TIME STEP   6 IN FLOW TIME STEP  50 STRESS PERIOD   2
    16 TOTAL ITERATIONS
>>>>>>> Stashed changes
 
 SOLVING FOR HEAD 
 FLOW MODEL IS TRANSIENT
 FLOW MODEL CONTAINS CONSTANT-HEAD CELLS


 MAXIMUM STEPSIZE DURING WHICH ANY PARTICLE CANNOT MOVE MORE THAN ONE CELL
<<<<<<< Updated upstream
 = 0.1633    (WHEN MIN. R.F.=1)  AT K=   3, I=   2, J=  29

 MAXIMUM STEPSIZE WHICH MEETS STABILITY CRITERION OF THE ADVECTION TERM
 (FOR PURE FINITE-DIFFERENCE OPTION, MIXELM=0) 
 = 0.1132    (WHEN MIN. R.F.=1)  AT K=   3, I=   2, J=  28
=======
 = 0.1870    (WHEN MIN. R.F.=1)  AT K=   3, I=   2, J=  31

 MAXIMUM STEPSIZE WHICH MEETS STABILITY CRITERION OF THE ADVECTION TERM
 (FOR PURE FINITE-DIFFERENCE OPTION, MIXELM=0) 
 = 0.1249    (WHEN MIN. R.F.=1)  AT K=   3, I=   2, J=  30
>>>>>>> Stashed changes


 TOTAL NUMBER OF POINT SOURCES/SINKS PRESENT IN THE FLOW MODEL =   240

 MAXIMUM STEPSIZE WHICH MEETS STABILITY CRITERION OF THE SINK & SOURCE TERM
 = 0.1000E+31(WHEN MIN. R.F.=1)  AT K=   0, I=   0, J=   0

 MAXIMUM STEPSIZE WHICH MEETS STABILITY CRITERION OF THE DISPERSION TERM
<<<<<<< Updated upstream
 = 0.6198E-02(WHEN MIN. R.F.=1)  AT K=   3, I=   2, J=  31
     1 CALLS TO GCG PACKAGE FOR TRANSPORT TIME STEP   6 IN FLOW TIME STEP  55 STRESS PERIOD   2
    15 TOTAL ITERATIONS
=======
 = 0.6701E-02(WHEN MIN. R.F.=1)  AT K=   3, I=   2, J=  30
     1 CALLS TO GCG PACKAGE FOR TRANSPORT TIME STEP   7 IN FLOW TIME STEP  50 STRESS PERIOD   2
    16 TOTAL ITERATIONS
>>>>>>> Stashed changes
 
 SOLVING FOR HEAD 
 FLOW MODEL IS TRANSIENT
 FLOW MODEL CONTAINS CONSTANT-HEAD CELLS


 MAXIMUM STEPSIZE DURING WHICH ANY PARTICLE CANNOT MOVE MORE THAN ONE CELL
<<<<<<< Updated upstream
 = 0.1633    (WHEN MIN. R.F.=1)  AT K=   3, I=   2, J=  29

 MAXIMUM STEPSIZE WHICH MEETS STABILITY CRITERION OF THE ADVECTION TERM
 (FOR PURE FINITE-DIFFERENCE OPTION, MIXELM=0) 
 = 0.1132    (WHEN MIN. R.F.=1)  AT K=   3, I=   2, J=  28
=======
 = 0.1870    (WHEN MIN. R.F.=1)  AT K=   3, I=   2, J=  31

 MAXIMUM STEPSIZE WHICH MEETS STABILITY CRITERION OF THE ADVECTION TERM
 (FOR PURE FINITE-DIFFERENCE OPTION, MIXELM=0) 
 = 0.1249    (WHEN MIN. R.F.=1)  AT K=   3, I=   2, J=  30
>>>>>>> Stashed changes


 TOTAL NUMBER OF POINT SOURCES/SINKS PRESENT IN THE FLOW MODEL =   240

 MAXIMUM STEPSIZE WHICH MEETS STABILITY CRITERION OF THE SINK & SOURCE TERM
 = 0.1000E+31(WHEN MIN. R.F.=1)  AT K=   0, I=   0, J=   0

 MAXIMUM STEPSIZE WHICH MEETS STABILITY CRITERION OF THE DISPERSION TERM
<<<<<<< Updated upstream
 = 0.6198E-02(WHEN MIN. R.F.=1)  AT K=   3, I=   2, J=  31
     1 CALLS TO GCG PACKAGE FOR TRANSPORT TIME STEP   7 IN FLOW TIME STEP  55 STRESS PERIOD   2
    15 TOTAL ITERATIONS
=======
 = 0.6701E-02(WHEN MIN. R.F.=1)  AT K=   3, I=   2, J=  30
     1 CALLS TO GCG PACKAGE FOR TRANSPORT TIME STEP   8 IN FLOW TIME STEP  50 STRESS PERIOD   2
     6 TOTAL ITERATIONS
  MAXIMUM CONCENTRATION CHANGES FOR EACH ITERATION:
  MAX. CHANGE LAYER,ROW,COL MAX. CHANGE LAYER,ROW,COL MAX. CHANGE LAYER,ROW,COL MAX. CHANGE LAYER,ROW,COL MAX. CHANGE LAYER,ROW,COL
 ------------------------------------------------------------------------------------------------------------------------------------
   0.1574E-03 ( 14,  3, 46)  0.6706E-05 (  5,  2, 60)  0.1489E-05 (  4,  2, 44)  0.5529E-06 (  3,  2, 37)  0.1580E-06 (  4,  1, 31)
   0.6230E-07 (  3,  1, 31)
 UBDSV1 SAVING "         STORAGE" ON UNIT  53 AT TIME STEP 50, STRESS PERIOD   2
 UBDSV2 SAVING "   CONSTANT HEAD" ON UNIT  53 AT TIME STEP 50, STRESS PERIOD   2
 UBDSV1 SAVING "FLOW RIGHT FACE " ON UNIT  53 AT TIME STEP 50, STRESS PERIOD   2
 UBDSV1 SAVING "FLOW FRONT FACE " ON UNIT  53 AT TIME STEP 50, STRESS PERIOD   2
 UBDSV1 SAVING "FLOW LOWER FACE " ON UNIT  53 AT TIME STEP 50, STRESS PERIOD   2
 UBDSV1 SAVING "            DCDT" ON UNIT  53 AT TIME STEP 50, STRESS PERIOD   2

 HEAD WILL BE SAVED ON UNIT   51 AT END OF TIME STEP  50, STRESS PERIOD    2


                                          ================================================
                                                         FROM TIME =   51.000     TO    52.000    

>>>>>>> Stashed changes
 
 SOLVING FOR HEAD 
 FLOW MODEL IS TRANSIENT
 FLOW MODEL CONTAINS CONSTANT-HEAD CELLS


 MAXIMUM STEPSIZE DURING WHICH ANY PARTICLE CANNOT MOVE MORE THAN ONE CELL
<<<<<<< Updated upstream
 = 0.1633    (WHEN MIN. R.F.=1)  AT K=   3, I=   2, J=  29

 MAXIMUM STEPSIZE WHICH MEETS STABILITY CRITERION OF THE ADVECTION TERM
 (FOR PURE FINITE-DIFFERENCE OPTION, MIXELM=0) 
 = 0.1132    (WHEN MIN. R.F.=1)  AT K=   3, I=   2, J=  28
=======
 = 0.1870    (WHEN MIN. R.F.=1)  AT K=   3, I=   2, J=  31

 MAXIMUM STEPSIZE WHICH MEETS STABILITY CRITERION OF THE ADVECTION TERM
 (FOR PURE FINITE-DIFFERENCE OPTION, MIXELM=0) 
 = 0.1249    (WHEN MIN. R.F.=1)  AT K=   3, I=   2, J=  30
>>>>>>> Stashed changes


 TOTAL NUMBER OF POINT SOURCES/SINKS PRESENT IN THE FLOW MODEL =   240

 MAXIMUM STEPSIZE WHICH MEETS STABILITY CRITERION OF THE SINK & SOURCE TERM
 = 0.1000E+31(WHEN MIN. R.F.=1)  AT K=   0, I=   0, J=   0

 MAXIMUM STEPSIZE WHICH MEETS STABILITY CRITERION OF THE DISPERSION TERM
<<<<<<< Updated upstream
 = 0.6198E-02(WHEN MIN. R.F.=1)  AT K=   3, I=   2, J=  31
     1 CALLS TO GCG PACKAGE FOR TRANSPORT TIME STEP   8 IN FLOW TIME STEP  55 STRESS PERIOD   2
    15 TOTAL ITERATIONS
=======
 = 0.6701E-02(WHEN MIN. R.F.=1)  AT K=   3, I=   2, J=  30


     1 CALLS TO GCG PACKAGE FOR TRANSPORT TIME STEP   1 IN FLOW TIME STEP  51 STRESS PERIOD   2
    16 TOTAL ITERATIONS

 OUTPUT CONTROL FOR STRESS PERIOD    2   TIME STEP  51
    SAVE HEAD FOR ALL LAYERS
    SAVE BUDGET
>>>>>>> Stashed changes
 
 SOLVING FOR HEAD 
 FLOW MODEL IS TRANSIENT
 FLOW MODEL CONTAINS CONSTANT-HEAD CELLS


 MAXIMUM STEPSIZE DURING WHICH ANY PARTICLE CANNOT MOVE MORE THAN ONE CELL
<<<<<<< Updated upstream
 = 0.1633    (WHEN MIN. R.F.=1)  AT K=   3, I=   2, J=  29

 MAXIMUM STEPSIZE WHICH MEETS STABILITY CRITERION OF THE ADVECTION TERM
 (FOR PURE FINITE-DIFFERENCE OPTION, MIXELM=0) 
 = 0.1132    (WHEN MIN. R.F.=1)  AT K=   3, I=   2, J=  28
=======
 = 0.1870    (WHEN MIN. R.F.=1)  AT K=   3, I=   2, J=  31

 MAXIMUM STEPSIZE WHICH MEETS STABILITY CRITERION OF THE ADVECTION TERM
 (FOR PURE FINITE-DIFFERENCE OPTION, MIXELM=0) 
 = 0.1249    (WHEN MIN. R.F.=1)  AT K=   3, I=   2, J=  30
>>>>>>> Stashed changes


 TOTAL NUMBER OF POINT SOURCES/SINKS PRESENT IN THE FLOW MODEL =   240

 MAXIMUM STEPSIZE WHICH MEETS STABILITY CRITERION OF THE SINK & SOURCE TERM
 = 0.1000E+31(WHEN MIN. R.F.=1)  AT K=   0, I=   0, J=   0

 MAXIMUM STEPSIZE WHICH MEETS STABILITY CRITERION OF THE DISPERSION TERM
<<<<<<< Updated upstream
 = 0.6198E-02(WHEN MIN. R.F.=1)  AT K=   3, I=   2, J=  31
     1 CALLS TO GCG PACKAGE FOR TRANSPORT TIME STEP   9 IN FLOW TIME STEP  55 STRESS PERIOD   2
     6 TOTAL ITERATIONS
  MAXIMUM CONCENTRATION CHANGES FOR EACH ITERATION:
  MAX. CHANGE LAYER,ROW,COL MAX. CHANGE LAYER,ROW,COL MAX. CHANGE LAYER,ROW,COL MAX. CHANGE LAYER,ROW,COL MAX. CHANGE LAYER,ROW,COL
 ------------------------------------------------------------------------------------------------------------------------------------
   0.1635E-03 ( 14,  3, 51)  0.8882E-05 (  5,  2, 63)  0.1798E-05 (  6,  1, 56)  0.4345E-06 (  3,  3, 31)  0.2062E-06 (  3,  3, 30)
   0.8240E-07 (  4,  3, 28)


                                          ================================================
                                                         FROM TIME =   56.000     TO    57.000    

=======
 = 0.6701E-02(WHEN MIN. R.F.=1)  AT K=   3, I=   2, J=  30
     1 CALLS TO GCG PACKAGE FOR TRANSPORT TIME STEP   2 IN FLOW TIME STEP  51 STRESS PERIOD   2
    16 TOTAL ITERATIONS
>>>>>>> Stashed changes
 
 SOLVING FOR HEAD 
 FLOW MODEL IS TRANSIENT
 FLOW MODEL CONTAINS CONSTANT-HEAD CELLS


 MAXIMUM STEPSIZE DURING WHICH ANY PARTICLE CANNOT MOVE MORE THAN ONE CELL
<<<<<<< Updated upstream
 = 0.1633    (WHEN MIN. R.F.=1)  AT K=   3, I=   2, J=  29

 MAXIMUM STEPSIZE WHICH MEETS STABILITY CRITERION OF THE ADVECTION TERM
 (FOR PURE FINITE-DIFFERENCE OPTION, MIXELM=0) 
 = 0.1132    (WHEN MIN. R.F.=1)  AT K=   3, I=   2, J=  28
=======
 = 0.1870    (WHEN MIN. R.F.=1)  AT K=   3, I=   2, J=  31

 MAXIMUM STEPSIZE WHICH MEETS STABILITY CRITERION OF THE ADVECTION TERM
 (FOR PURE FINITE-DIFFERENCE OPTION, MIXELM=0) 
 = 0.1249    (WHEN MIN. R.F.=1)  AT K=   3, I=   2, J=  30
>>>>>>> Stashed changes


 TOTAL NUMBER OF POINT SOURCES/SINKS PRESENT IN THE FLOW MODEL =   240

 MAXIMUM STEPSIZE WHICH MEETS STABILITY CRITERION OF THE SINK & SOURCE TERM
 = 0.1000E+31(WHEN MIN. R.F.=1)  AT K=   0, I=   0, J=   0

 MAXIMUM STEPSIZE WHICH MEETS STABILITY CRITERION OF THE DISPERSION TERM
<<<<<<< Updated upstream
 = 0.6198E-02(WHEN MIN. R.F.=1)  AT K=   3, I=   2, J=  31


     1 CALLS TO GCG PACKAGE FOR TRANSPORT TIME STEP   1 IN FLOW TIME STEP  56 STRESS PERIOD   2
    15 TOTAL ITERATIONS

 NO OUTPUT CONTROL FOR STRESS PERIOD    2   TIME STEP  56
=======
 = 0.6701E-02(WHEN MIN. R.F.=1)  AT K=   3, I=   2, J=  30
     1 CALLS TO GCG PACKAGE FOR TRANSPORT TIME STEP   3 IN FLOW TIME STEP  51 STRESS PERIOD   2
    16 TOTAL ITERATIONS
>>>>>>> Stashed changes
 
 SOLVING FOR HEAD 
 FLOW MODEL IS TRANSIENT
 FLOW MODEL CONTAINS CONSTANT-HEAD CELLS


 MAXIMUM STEPSIZE DURING WHICH ANY PARTICLE CANNOT MOVE MORE THAN ONE CELL
<<<<<<< Updated upstream
 = 0.1633    (WHEN MIN. R.F.=1)  AT K=   3, I=   2, J=  29

 MAXIMUM STEPSIZE WHICH MEETS STABILITY CRITERION OF THE ADVECTION TERM
 (FOR PURE FINITE-DIFFERENCE OPTION, MIXELM=0) 
 = 0.1132    (WHEN MIN. R.F.=1)  AT K=   3, I=   2, J=  28
=======
 = 0.1870    (WHEN MIN. R.F.=1)  AT K=   3, I=   2, J=  31

 MAXIMUM STEPSIZE WHICH MEETS STABILITY CRITERION OF THE ADVECTION TERM
 (FOR PURE FINITE-DIFFERENCE OPTION, MIXELM=0) 
 = 0.1249    (WHEN MIN. R.F.=1)  AT K=   3, I=   2, J=  30
>>>>>>> Stashed changes


 TOTAL NUMBER OF POINT SOURCES/SINKS PRESENT IN THE FLOW MODEL =   240

 MAXIMUM STEPSIZE WHICH MEETS STABILITY CRITERION OF THE SINK & SOURCE TERM
 = 0.1000E+31(WHEN MIN. R.F.=1)  AT K=   0, I=   0, J=   0

 MAXIMUM STEPSIZE WHICH MEETS STABILITY CRITERION OF THE DISPERSION TERM
<<<<<<< Updated upstream
 = 0.6198E-02(WHEN MIN. R.F.=1)  AT K=   3, I=   2, J=  31
     1 CALLS TO GCG PACKAGE FOR TRANSPORT TIME STEP   2 IN FLOW TIME STEP  56 STRESS PERIOD   2
    15 TOTAL ITERATIONS
=======
 = 0.6701E-02(WHEN MIN. R.F.=1)  AT K=   3, I=   2, J=  30
     1 CALLS TO GCG PACKAGE FOR TRANSPORT TIME STEP   4 IN FLOW TIME STEP  51 STRESS PERIOD   2
    16 TOTAL ITERATIONS
>>>>>>> Stashed changes
 
 SOLVING FOR HEAD 
 FLOW MODEL IS TRANSIENT
 FLOW MODEL CONTAINS CONSTANT-HEAD CELLS


 MAXIMUM STEPSIZE DURING WHICH ANY PARTICLE CANNOT MOVE MORE THAN ONE CELL
<<<<<<< Updated upstream
 = 0.1633    (WHEN MIN. R.F.=1)  AT K=   3, I=   2, J=  29

 MAXIMUM STEPSIZE WHICH MEETS STABILITY CRITERION OF THE ADVECTION TERM
 (FOR PURE FINITE-DIFFERENCE OPTION, MIXELM=0) 
 = 0.1132    (WHEN MIN. R.F.=1)  AT K=   3, I=   2, J=  28
=======
 = 0.1870    (WHEN MIN. R.F.=1)  AT K=   3, I=   2, J=  31

 MAXIMUM STEPSIZE WHICH MEETS STABILITY CRITERION OF THE ADVECTION TERM
 (FOR PURE FINITE-DIFFERENCE OPTION, MIXELM=0) 
 = 0.1249    (WHEN MIN. R.F.=1)  AT K=   3, I=   2, J=  30
>>>>>>> Stashed changes


 TOTAL NUMBER OF POINT SOURCES/SINKS PRESENT IN THE FLOW MODEL =   240

 MAXIMUM STEPSIZE WHICH MEETS STABILITY CRITERION OF THE SINK & SOURCE TERM
 = 0.1000E+31(WHEN MIN. R.F.=1)  AT K=   0, I=   0, J=   0

 MAXIMUM STEPSIZE WHICH MEETS STABILITY CRITERION OF THE DISPERSION TERM
<<<<<<< Updated upstream
 = 0.6198E-02(WHEN MIN. R.F.=1)  AT K=   3, I=   2, J=  31
     1 CALLS TO GCG PACKAGE FOR TRANSPORT TIME STEP   3 IN FLOW TIME STEP  56 STRESS PERIOD   2
    15 TOTAL ITERATIONS
=======
 = 0.6701E-02(WHEN MIN. R.F.=1)  AT K=   3, I=   2, J=  30
     1 CALLS TO GCG PACKAGE FOR TRANSPORT TIME STEP   5 IN FLOW TIME STEP  51 STRESS PERIOD   2
    16 TOTAL ITERATIONS
>>>>>>> Stashed changes
 
 SOLVING FOR HEAD 
 FLOW MODEL IS TRANSIENT
 FLOW MODEL CONTAINS CONSTANT-HEAD CELLS


 MAXIMUM STEPSIZE DURING WHICH ANY PARTICLE CANNOT MOVE MORE THAN ONE CELL
<<<<<<< Updated upstream
 = 0.1633    (WHEN MIN. R.F.=1)  AT K=   3, I=   2, J=  29

 MAXIMUM STEPSIZE WHICH MEETS STABILITY CRITERION OF THE ADVECTION TERM
 (FOR PURE FINITE-DIFFERENCE OPTION, MIXELM=0) 
 = 0.1132    (WHEN MIN. R.F.=1)  AT K=   3, I=   2, J=  28
=======
 = 0.1870    (WHEN MIN. R.F.=1)  AT K=   3, I=   2, J=  31

 MAXIMUM STEPSIZE WHICH MEETS STABILITY CRITERION OF THE ADVECTION TERM
 (FOR PURE FINITE-DIFFERENCE OPTION, MIXELM=0) 
 = 0.1249    (WHEN MIN. R.F.=1)  AT K=   3, I=   2, J=  30
>>>>>>> Stashed changes


 TOTAL NUMBER OF POINT SOURCES/SINKS PRESENT IN THE FLOW MODEL =   240

 MAXIMUM STEPSIZE WHICH MEETS STABILITY CRITERION OF THE SINK & SOURCE TERM
 = 0.1000E+31(WHEN MIN. R.F.=1)  AT K=   0, I=   0, J=   0

 MAXIMUM STEPSIZE WHICH MEETS STABILITY CRITERION OF THE DISPERSION TERM
<<<<<<< Updated upstream
 = 0.6198E-02(WHEN MIN. R.F.=1)  AT K=   3, I=   2, J=  31
     1 CALLS TO GCG PACKAGE FOR TRANSPORT TIME STEP   4 IN FLOW TIME STEP  56 STRESS PERIOD   2
    15 TOTAL ITERATIONS
=======
 = 0.6701E-02(WHEN MIN. R.F.=1)  AT K=   3, I=   2, J=  30
     1 CALLS TO GCG PACKAGE FOR TRANSPORT TIME STEP   6 IN FLOW TIME STEP  51 STRESS PERIOD   2
    16 TOTAL ITERATIONS
>>>>>>> Stashed changes
 
 SOLVING FOR HEAD 
 FLOW MODEL IS TRANSIENT
 FLOW MODEL CONTAINS CONSTANT-HEAD CELLS


 MAXIMUM STEPSIZE DURING WHICH ANY PARTICLE CANNOT MOVE MORE THAN ONE CELL
<<<<<<< Updated upstream
 = 0.1633    (WHEN MIN. R.F.=1)  AT K=   3, I=   2, J=  29

 MAXIMUM STEPSIZE WHICH MEETS STABILITY CRITERION OF THE ADVECTION TERM
 (FOR PURE FINITE-DIFFERENCE OPTION, MIXELM=0) 
 = 0.1132    (WHEN MIN. R.F.=1)  AT K=   3, I=   2, J=  28
=======
 = 0.1870    (WHEN MIN. R.F.=1)  AT K=   3, I=   2, J=  31

 MAXIMUM STEPSIZE WHICH MEETS STABILITY CRITERION OF THE ADVECTION TERM
 (FOR PURE FINITE-DIFFERENCE OPTION, MIXELM=0) 
 = 0.1249    (WHEN MIN. R.F.=1)  AT K=   3, I=   2, J=  30
>>>>>>> Stashed changes


 TOTAL NUMBER OF POINT SOURCES/SINKS PRESENT IN THE FLOW MODEL =   240

 MAXIMUM STEPSIZE WHICH MEETS STABILITY CRITERION OF THE SINK & SOURCE TERM
 = 0.1000E+31(WHEN MIN. R.F.=1)  AT K=   0, I=   0, J=   0

 MAXIMUM STEPSIZE WHICH MEETS STABILITY CRITERION OF THE DISPERSION TERM
<<<<<<< Updated upstream
 = 0.6197E-02(WHEN MIN. R.F.=1)  AT K=   3, I=   2, J=  31
     1 CALLS TO GCG PACKAGE FOR TRANSPORT TIME STEP   5 IN FLOW TIME STEP  56 STRESS PERIOD   2
    15 TOTAL ITERATIONS
=======
 = 0.6701E-02(WHEN MIN. R.F.=1)  AT K=   3, I=   2, J=  30
     1 CALLS TO GCG PACKAGE FOR TRANSPORT TIME STEP   7 IN FLOW TIME STEP  51 STRESS PERIOD   2
    16 TOTAL ITERATIONS
>>>>>>> Stashed changes
 
 SOLVING FOR HEAD 
 FLOW MODEL IS TRANSIENT
 FLOW MODEL CONTAINS CONSTANT-HEAD CELLS


 MAXIMUM STEPSIZE DURING WHICH ANY PARTICLE CANNOT MOVE MORE THAN ONE CELL
<<<<<<< Updated upstream
 = 0.1633    (WHEN MIN. R.F.=1)  AT K=   3, I=   2, J=  29

 MAXIMUM STEPSIZE WHICH MEETS STABILITY CRITERION OF THE ADVECTION TERM
 (FOR PURE FINITE-DIFFERENCE OPTION, MIXELM=0) 
 = 0.1132    (WHEN MIN. R.F.=1)  AT K=   3, I=   2, J=  28
=======
 = 0.1870    (WHEN MIN. R.F.=1)  AT K=   3, I=   2, J=  31

 MAXIMUM STEPSIZE WHICH MEETS STABILITY CRITERION OF THE ADVECTION TERM
 (FOR PURE FINITE-DIFFERENCE OPTION, MIXELM=0) 
 = 0.1249    (WHEN MIN. R.F.=1)  AT K=   3, I=   2, J=  30
>>>>>>> Stashed changes


 TOTAL NUMBER OF POINT SOURCES/SINKS PRESENT IN THE FLOW MODEL =   240

 MAXIMUM STEPSIZE WHICH MEETS STABILITY CRITERION OF THE SINK & SOURCE TERM
 = 0.1000E+31(WHEN MIN. R.F.=1)  AT K=   0, I=   0, J=   0

 MAXIMUM STEPSIZE WHICH MEETS STABILITY CRITERION OF THE DISPERSION TERM
<<<<<<< Updated upstream
 = 0.6197E-02(WHEN MIN. R.F.=1)  AT K=   3, I=   2, J=  31
     1 CALLS TO GCG PACKAGE FOR TRANSPORT TIME STEP   6 IN FLOW TIME STEP  56 STRESS PERIOD   2
    15 TOTAL ITERATIONS
=======
 = 0.6700E-02(WHEN MIN. R.F.=1)  AT K=   3, I=   2, J=  30
     1 CALLS TO GCG PACKAGE FOR TRANSPORT TIME STEP   8 IN FLOW TIME STEP  51 STRESS PERIOD   2
     6 TOTAL ITERATIONS
  MAXIMUM CONCENTRATION CHANGES FOR EACH ITERATION:
  MAX. CHANGE LAYER,ROW,COL MAX. CHANGE LAYER,ROW,COL MAX. CHANGE LAYER,ROW,COL MAX. CHANGE LAYER,ROW,COL MAX. CHANGE LAYER,ROW,COL
 ------------------------------------------------------------------------------------------------------------------------------------
   0.1543E-03 ( 14,  3, 46)  0.6468E-05 (  5,  2, 60)  0.1427E-05 (  4,  2, 44)  0.5240E-06 (  3,  2, 37)  0.1540E-06 (  4,  1, 31)
   0.6160E-07 (  3,  1, 31)
 UBDSV1 SAVING "         STORAGE" ON UNIT  53 AT TIME STEP 51, STRESS PERIOD   2
 UBDSV2 SAVING "   CONSTANT HEAD" ON UNIT  53 AT TIME STEP 51, STRESS PERIOD   2
 UBDSV1 SAVING "FLOW RIGHT FACE " ON UNIT  53 AT TIME STEP 51, STRESS PERIOD   2
 UBDSV1 SAVING "FLOW FRONT FACE " ON UNIT  53 AT TIME STEP 51, STRESS PERIOD   2
 UBDSV1 SAVING "FLOW LOWER FACE " ON UNIT  53 AT TIME STEP 51, STRESS PERIOD   2
 UBDSV1 SAVING "            DCDT" ON UNIT  53 AT TIME STEP 51, STRESS PERIOD   2

 HEAD WILL BE SAVED ON UNIT   51 AT END OF TIME STEP  51, STRESS PERIOD    2


                                          ================================================
                                                         FROM TIME =   52.000     TO    53.000    

>>>>>>> Stashed changes
 
 SOLVING FOR HEAD 
 FLOW MODEL IS TRANSIENT
 FLOW MODEL CONTAINS CONSTANT-HEAD CELLS


 MAXIMUM STEPSIZE DURING WHICH ANY PARTICLE CANNOT MOVE MORE THAN ONE CELL
<<<<<<< Updated upstream
 = 0.1633    (WHEN MIN. R.F.=1)  AT K=   3, I=   2, J=  29

 MAXIMUM STEPSIZE WHICH MEETS STABILITY CRITERION OF THE ADVECTION TERM
 (FOR PURE FINITE-DIFFERENCE OPTION, MIXELM=0) 
 = 0.1132    (WHEN MIN. R.F.=1)  AT K=   3, I=   2, J=  28
=======
 = 0.1870    (WHEN MIN. R.F.=1)  AT K=   3, I=   2, J=  31

 MAXIMUM STEPSIZE WHICH MEETS STABILITY CRITERION OF THE ADVECTION TERM
 (FOR PURE FINITE-DIFFERENCE OPTION, MIXELM=0) 
 = 0.1249    (WHEN MIN. R.F.=1)  AT K=   3, I=   2, J=  30
>>>>>>> Stashed changes


 TOTAL NUMBER OF POINT SOURCES/SINKS PRESENT IN THE FLOW MODEL =   240

 MAXIMUM STEPSIZE WHICH MEETS STABILITY CRITERION OF THE SINK & SOURCE TERM
 = 0.1000E+31(WHEN MIN. R.F.=1)  AT K=   0, I=   0, J=   0

 MAXIMUM STEPSIZE WHICH MEETS STABILITY CRITERION OF THE DISPERSION TERM
<<<<<<< Updated upstream
 = 0.6197E-02(WHEN MIN. R.F.=1)  AT K=   3, I=   2, J=  31
     1 CALLS TO GCG PACKAGE FOR TRANSPORT TIME STEP   7 IN FLOW TIME STEP  56 STRESS PERIOD   2
    15 TOTAL ITERATIONS
=======
 = 0.6700E-02(WHEN MIN. R.F.=1)  AT K=   3, I=   2, J=  30


     1 CALLS TO GCG PACKAGE FOR TRANSPORT TIME STEP   1 IN FLOW TIME STEP  52 STRESS PERIOD   2
    16 TOTAL ITERATIONS

 OUTPUT CONTROL FOR STRESS PERIOD    2   TIME STEP  52
    SAVE HEAD FOR ALL LAYERS
    SAVE BUDGET
>>>>>>> Stashed changes
 
 SOLVING FOR HEAD 
 FLOW MODEL IS TRANSIENT
 FLOW MODEL CONTAINS CONSTANT-HEAD CELLS


 MAXIMUM STEPSIZE DURING WHICH ANY PARTICLE CANNOT MOVE MORE THAN ONE CELL
<<<<<<< Updated upstream
 = 0.1633    (WHEN MIN. R.F.=1)  AT K=   3, I=   2, J=  29

 MAXIMUM STEPSIZE WHICH MEETS STABILITY CRITERION OF THE ADVECTION TERM
 (FOR PURE FINITE-DIFFERENCE OPTION, MIXELM=0) 
 = 0.1132    (WHEN MIN. R.F.=1)  AT K=   3, I=   2, J=  28
=======
 = 0.1870    (WHEN MIN. R.F.=1)  AT K=   3, I=   2, J=  31

 MAXIMUM STEPSIZE WHICH MEETS STABILITY CRITERION OF THE ADVECTION TERM
 (FOR PURE FINITE-DIFFERENCE OPTION, MIXELM=0) 
 = 0.1249    (WHEN MIN. R.F.=1)  AT K=   3, I=   2, J=  30
>>>>>>> Stashed changes


 TOTAL NUMBER OF POINT SOURCES/SINKS PRESENT IN THE FLOW MODEL =   240

 MAXIMUM STEPSIZE WHICH MEETS STABILITY CRITERION OF THE SINK & SOURCE TERM
 = 0.1000E+31(WHEN MIN. R.F.=1)  AT K=   0, I=   0, J=   0

 MAXIMUM STEPSIZE WHICH MEETS STABILITY CRITERION OF THE DISPERSION TERM
<<<<<<< Updated upstream
 = 0.6197E-02(WHEN MIN. R.F.=1)  AT K=   3, I=   2, J=  31
     1 CALLS TO GCG PACKAGE FOR TRANSPORT TIME STEP   8 IN FLOW TIME STEP  56 STRESS PERIOD   2
    15 TOTAL ITERATIONS
=======
 = 0.6700E-02(WHEN MIN. R.F.=1)  AT K=   3, I=   2, J=  30
     1 CALLS TO GCG PACKAGE FOR TRANSPORT TIME STEP   2 IN FLOW TIME STEP  52 STRESS PERIOD   2
    16 TOTAL ITERATIONS
>>>>>>> Stashed changes
 
 SOLVING FOR HEAD 
 FLOW MODEL IS TRANSIENT
 FLOW MODEL CONTAINS CONSTANT-HEAD CELLS


 MAXIMUM STEPSIZE DURING WHICH ANY PARTICLE CANNOT MOVE MORE THAN ONE CELL
<<<<<<< Updated upstream
 = 0.1633    (WHEN MIN. R.F.=1)  AT K=   3, I=   2, J=  29

 MAXIMUM STEPSIZE WHICH MEETS STABILITY CRITERION OF THE ADVECTION TERM
 (FOR PURE FINITE-DIFFERENCE OPTION, MIXELM=0) 
 = 0.1132    (WHEN MIN. R.F.=1)  AT K=   3, I=   2, J=  28
=======
 = 0.1870    (WHEN MIN. R.F.=1)  AT K=   3, I=   2, J=  31

 MAXIMUM STEPSIZE WHICH MEETS STABILITY CRITERION OF THE ADVECTION TERM
 (FOR PURE FINITE-DIFFERENCE OPTION, MIXELM=0) 
 = 0.1249    (WHEN MIN. R.F.=1)  AT K=   3, I=   2, J=  30
>>>>>>> Stashed changes


 TOTAL NUMBER OF POINT SOURCES/SINKS PRESENT IN THE FLOW MODEL =   240

 MAXIMUM STEPSIZE WHICH MEETS STABILITY CRITERION OF THE SINK & SOURCE TERM
 = 0.1000E+31(WHEN MIN. R.F.=1)  AT K=   0, I=   0, J=   0

 MAXIMUM STEPSIZE WHICH MEETS STABILITY CRITERION OF THE DISPERSION TERM
<<<<<<< Updated upstream
 = 0.6197E-02(WHEN MIN. R.F.=1)  AT K=   3, I=   2, J=  31
     1 CALLS TO GCG PACKAGE FOR TRANSPORT TIME STEP   9 IN FLOW TIME STEP  56 STRESS PERIOD   2
     6 TOTAL ITERATIONS
  MAXIMUM CONCENTRATION CHANGES FOR EACH ITERATION:
  MAX. CHANGE LAYER,ROW,COL MAX. CHANGE LAYER,ROW,COL MAX. CHANGE LAYER,ROW,COL MAX. CHANGE LAYER,ROW,COL MAX. CHANGE LAYER,ROW,COL
 ------------------------------------------------------------------------------------------------------------------------------------
   0.1619E-03 ( 14,  3, 51)  0.8608E-05 (  5,  2, 64)  0.1736E-05 (  6,  1, 56)  0.4031E-06 (  3,  3, 31)  0.1936E-06 (  3,  3, 30)
   0.7784E-07 (  4,  3, 28)


                                          ================================================
                                                         FROM TIME =   57.000     TO    58.000    

=======
 = 0.6700E-02(WHEN MIN. R.F.=1)  AT K=   3, I=   2, J=  30
     1 CALLS TO GCG PACKAGE FOR TRANSPORT TIME STEP   3 IN FLOW TIME STEP  52 STRESS PERIOD   2
    16 TOTAL ITERATIONS
>>>>>>> Stashed changes
 
 SOLVING FOR HEAD 
 FLOW MODEL IS TRANSIENT
 FLOW MODEL CONTAINS CONSTANT-HEAD CELLS


 MAXIMUM STEPSIZE DURING WHICH ANY PARTICLE CANNOT MOVE MORE THAN ONE CELL
<<<<<<< Updated upstream
 = 0.1633    (WHEN MIN. R.F.=1)  AT K=   3, I=   2, J=  29

 MAXIMUM STEPSIZE WHICH MEETS STABILITY CRITERION OF THE ADVECTION TERM
 (FOR PURE FINITE-DIFFERENCE OPTION, MIXELM=0) 
 = 0.1132    (WHEN MIN. R.F.=1)  AT K=   3, I=   2, J=  28
=======
 = 0.1870    (WHEN MIN. R.F.=1)  AT K=   3, I=   2, J=  31

 MAXIMUM STEPSIZE WHICH MEETS STABILITY CRITERION OF THE ADVECTION TERM
 (FOR PURE FINITE-DIFFERENCE OPTION, MIXELM=0) 
 = 0.1249    (WHEN MIN. R.F.=1)  AT K=   3, I=   2, J=  30
>>>>>>> Stashed changes


 TOTAL NUMBER OF POINT SOURCES/SINKS PRESENT IN THE FLOW MODEL =   240

 MAXIMUM STEPSIZE WHICH MEETS STABILITY CRITERION OF THE SINK & SOURCE TERM
 = 0.1000E+31(WHEN MIN. R.F.=1)  AT K=   0, I=   0, J=   0

 MAXIMUM STEPSIZE WHICH MEETS STABILITY CRITERION OF THE DISPERSION TERM
<<<<<<< Updated upstream
 = 0.6197E-02(WHEN MIN. R.F.=1)  AT K=   3, I=   2, J=  31


     1 CALLS TO GCG PACKAGE FOR TRANSPORT TIME STEP   1 IN FLOW TIME STEP  57 STRESS PERIOD   2
    15 TOTAL ITERATIONS

 NO OUTPUT CONTROL FOR STRESS PERIOD    2   TIME STEP  57
=======
 = 0.6700E-02(WHEN MIN. R.F.=1)  AT K=   3, I=   2, J=  30
     1 CALLS TO GCG PACKAGE FOR TRANSPORT TIME STEP   4 IN FLOW TIME STEP  52 STRESS PERIOD   2
    16 TOTAL ITERATIONS
>>>>>>> Stashed changes
 
 SOLVING FOR HEAD 
 FLOW MODEL IS TRANSIENT
 FLOW MODEL CONTAINS CONSTANT-HEAD CELLS


 MAXIMUM STEPSIZE DURING WHICH ANY PARTICLE CANNOT MOVE MORE THAN ONE CELL
<<<<<<< Updated upstream
 = 0.1633    (WHEN MIN. R.F.=1)  AT K=   3, I=   2, J=  29

 MAXIMUM STEPSIZE WHICH MEETS STABILITY CRITERION OF THE ADVECTION TERM
 (FOR PURE FINITE-DIFFERENCE OPTION, MIXELM=0) 
 = 0.1132    (WHEN MIN. R.F.=1)  AT K=   3, I=   2, J=  28
=======
 = 0.1870    (WHEN MIN. R.F.=1)  AT K=   3, I=   2, J=  31

 MAXIMUM STEPSIZE WHICH MEETS STABILITY CRITERION OF THE ADVECTION TERM
 (FOR PURE FINITE-DIFFERENCE OPTION, MIXELM=0) 
 = 0.1249    (WHEN MIN. R.F.=1)  AT K=   3, I=   2, J=  30
>>>>>>> Stashed changes


 TOTAL NUMBER OF POINT SOURCES/SINKS PRESENT IN THE FLOW MODEL =   240

 MAXIMUM STEPSIZE WHICH MEETS STABILITY CRITERION OF THE SINK & SOURCE TERM
 = 0.1000E+31(WHEN MIN. R.F.=1)  AT K=   0, I=   0, J=   0

 MAXIMUM STEPSIZE WHICH MEETS STABILITY CRITERION OF THE DISPERSION TERM
<<<<<<< Updated upstream
 = 0.6197E-02(WHEN MIN. R.F.=1)  AT K=   3, I=   2, J=  31
     1 CALLS TO GCG PACKAGE FOR TRANSPORT TIME STEP   2 IN FLOW TIME STEP  57 STRESS PERIOD   2
    15 TOTAL ITERATIONS
=======
 = 0.6700E-02(WHEN MIN. R.F.=1)  AT K=   3, I=   2, J=  30
     1 CALLS TO GCG PACKAGE FOR TRANSPORT TIME STEP   5 IN FLOW TIME STEP  52 STRESS PERIOD   2
    16 TOTAL ITERATIONS
>>>>>>> Stashed changes
 
 SOLVING FOR HEAD 
 FLOW MODEL IS TRANSIENT
 FLOW MODEL CONTAINS CONSTANT-HEAD CELLS


 MAXIMUM STEPSIZE DURING WHICH ANY PARTICLE CANNOT MOVE MORE THAN ONE CELL
<<<<<<< Updated upstream
 = 0.1633    (WHEN MIN. R.F.=1)  AT K=   3, I=   2, J=  29

 MAXIMUM STEPSIZE WHICH MEETS STABILITY CRITERION OF THE ADVECTION TERM
 (FOR PURE FINITE-DIFFERENCE OPTION, MIXELM=0) 
 = 0.1132    (WHEN MIN. R.F.=1)  AT K=   3, I=   2, J=  28
=======
 = 0.1870    (WHEN MIN. R.F.=1)  AT K=   3, I=   2, J=  31

 MAXIMUM STEPSIZE WHICH MEETS STABILITY CRITERION OF THE ADVECTION TERM
 (FOR PURE FINITE-DIFFERENCE OPTION, MIXELM=0) 
 = 0.1249    (WHEN MIN. R.F.=1)  AT K=   3, I=   2, J=  30
>>>>>>> Stashed changes


 TOTAL NUMBER OF POINT SOURCES/SINKS PRESENT IN THE FLOW MODEL =   240

 MAXIMUM STEPSIZE WHICH MEETS STABILITY CRITERION OF THE SINK & SOURCE TERM
 = 0.1000E+31(WHEN MIN. R.F.=1)  AT K=   0, I=   0, J=   0

 MAXIMUM STEPSIZE WHICH MEETS STABILITY CRITERION OF THE DISPERSION TERM
<<<<<<< Updated upstream
 = 0.6197E-02(WHEN MIN. R.F.=1)  AT K=   3, I=   2, J=  31
     1 CALLS TO GCG PACKAGE FOR TRANSPORT TIME STEP   3 IN FLOW TIME STEP  57 STRESS PERIOD   2
    15 TOTAL ITERATIONS
=======
 = 0.6700E-02(WHEN MIN. R.F.=1)  AT K=   3, I=   2, J=  30
     1 CALLS TO GCG PACKAGE FOR TRANSPORT TIME STEP   6 IN FLOW TIME STEP  52 STRESS PERIOD   2
    16 TOTAL ITERATIONS
>>>>>>> Stashed changes
 
 SOLVING FOR HEAD 
 FLOW MODEL IS TRANSIENT
 FLOW MODEL CONTAINS CONSTANT-HEAD CELLS


 MAXIMUM STEPSIZE DURING WHICH ANY PARTICLE CANNOT MOVE MORE THAN ONE CELL
<<<<<<< Updated upstream
 = 0.1633    (WHEN MIN. R.F.=1)  AT K=   3, I=   2, J=  29

 MAXIMUM STEPSIZE WHICH MEETS STABILITY CRITERION OF THE ADVECTION TERM
 (FOR PURE FINITE-DIFFERENCE OPTION, MIXELM=0) 
 = 0.1132    (WHEN MIN. R.F.=1)  AT K=   3, I=   2, J=  28
=======
 = 0.1870    (WHEN MIN. R.F.=1)  AT K=   3, I=   2, J=  31

 MAXIMUM STEPSIZE WHICH MEETS STABILITY CRITERION OF THE ADVECTION TERM
 (FOR PURE FINITE-DIFFERENCE OPTION, MIXELM=0) 
 = 0.1249    (WHEN MIN. R.F.=1)  AT K=   3, I=   2, J=  30
>>>>>>> Stashed changes


 TOTAL NUMBER OF POINT SOURCES/SINKS PRESENT IN THE FLOW MODEL =   240

 MAXIMUM STEPSIZE WHICH MEETS STABILITY CRITERION OF THE SINK & SOURCE TERM
 = 0.1000E+31(WHEN MIN. R.F.=1)  AT K=   0, I=   0, J=   0

 MAXIMUM STEPSIZE WHICH MEETS STABILITY CRITERION OF THE DISPERSION TERM
<<<<<<< Updated upstream
 = 0.6197E-02(WHEN MIN. R.F.=1)  AT K=   3, I=   2, J=  31
     1 CALLS TO GCG PACKAGE FOR TRANSPORT TIME STEP   4 IN FLOW TIME STEP  57 STRESS PERIOD   2
    15 TOTAL ITERATIONS
=======
 = 0.6700E-02(WHEN MIN. R.F.=1)  AT K=   3, I=   2, J=  30
     1 CALLS TO GCG PACKAGE FOR TRANSPORT TIME STEP   7 IN FLOW TIME STEP  52 STRESS PERIOD   2
    16 TOTAL ITERATIONS
>>>>>>> Stashed changes
 
 SOLVING FOR HEAD 
 FLOW MODEL IS TRANSIENT
 FLOW MODEL CONTAINS CONSTANT-HEAD CELLS


 MAXIMUM STEPSIZE DURING WHICH ANY PARTICLE CANNOT MOVE MORE THAN ONE CELL
<<<<<<< Updated upstream
 = 0.1633    (WHEN MIN. R.F.=1)  AT K=   3, I=   2, J=  29

 MAXIMUM STEPSIZE WHICH MEETS STABILITY CRITERION OF THE ADVECTION TERM
 (FOR PURE FINITE-DIFFERENCE OPTION, MIXELM=0) 
 = 0.1132    (WHEN MIN. R.F.=1)  AT K=   3, I=   2, J=  28
=======
 = 0.1870    (WHEN MIN. R.F.=1)  AT K=   3, I=   2, J=  31

 MAXIMUM STEPSIZE WHICH MEETS STABILITY CRITERION OF THE ADVECTION TERM
 (FOR PURE FINITE-DIFFERENCE OPTION, MIXELM=0) 
 = 0.1249    (WHEN MIN. R.F.=1)  AT K=   3, I=   2, J=  30
>>>>>>> Stashed changes


 TOTAL NUMBER OF POINT SOURCES/SINKS PRESENT IN THE FLOW MODEL =   240

 MAXIMUM STEPSIZE WHICH MEETS STABILITY CRITERION OF THE SINK & SOURCE TERM
 = 0.1000E+31(WHEN MIN. R.F.=1)  AT K=   0, I=   0, J=   0

 MAXIMUM STEPSIZE WHICH MEETS STABILITY CRITERION OF THE DISPERSION TERM
<<<<<<< Updated upstream
 = 0.6197E-02(WHEN MIN. R.F.=1)  AT K=   3, I=   2, J=  31
     1 CALLS TO GCG PACKAGE FOR TRANSPORT TIME STEP   5 IN FLOW TIME STEP  57 STRESS PERIOD   2
    15 TOTAL ITERATIONS
=======
 = 0.6700E-02(WHEN MIN. R.F.=1)  AT K=   3, I=   2, J=  30
     1 CALLS TO GCG PACKAGE FOR TRANSPORT TIME STEP   8 IN FLOW TIME STEP  52 STRESS PERIOD   2
     6 TOTAL ITERATIONS
  MAXIMUM CONCENTRATION CHANGES FOR EACH ITERATION:
  MAX. CHANGE LAYER,ROW,COL MAX. CHANGE LAYER,ROW,COL MAX. CHANGE LAYER,ROW,COL MAX. CHANGE LAYER,ROW,COL MAX. CHANGE LAYER,ROW,COL
 ------------------------------------------------------------------------------------------------------------------------------------
   0.1512E-03 ( 14,  3, 46)  0.6240E-05 (  5,  2, 60)  0.1362E-05 (  4,  2, 44)  0.5025E-06 (  3,  2, 37)  0.1467E-06 (  4,  1, 31)
   0.5781E-07 (  3,  1, 31)
 UBDSV1 SAVING "         STORAGE" ON UNIT  53 AT TIME STEP 52, STRESS PERIOD   2
 UBDSV2 SAVING "   CONSTANT HEAD" ON UNIT  53 AT TIME STEP 52, STRESS PERIOD   2
 UBDSV1 SAVING "FLOW RIGHT FACE " ON UNIT  53 AT TIME STEP 52, STRESS PERIOD   2
 UBDSV1 SAVING "FLOW FRONT FACE " ON UNIT  53 AT TIME STEP 52, STRESS PERIOD   2
 UBDSV1 SAVING "FLOW LOWER FACE " ON UNIT  53 AT TIME STEP 52, STRESS PERIOD   2
 UBDSV1 SAVING "            DCDT" ON UNIT  53 AT TIME STEP 52, STRESS PERIOD   2

 HEAD WILL BE SAVED ON UNIT   51 AT END OF TIME STEP  52, STRESS PERIOD    2


                                          ================================================
                                                         FROM TIME =   53.000     TO    54.000    

>>>>>>> Stashed changes
 
 SOLVING FOR HEAD 
 FLOW MODEL IS TRANSIENT
 FLOW MODEL CONTAINS CONSTANT-HEAD CELLS


 MAXIMUM STEPSIZE DURING WHICH ANY PARTICLE CANNOT MOVE MORE THAN ONE CELL
<<<<<<< Updated upstream
 = 0.1633    (WHEN MIN. R.F.=1)  AT K=   3, I=   2, J=  29

 MAXIMUM STEPSIZE WHICH MEETS STABILITY CRITERION OF THE ADVECTION TERM
 (FOR PURE FINITE-DIFFERENCE OPTION, MIXELM=0) 
 = 0.1132    (WHEN MIN. R.F.=1)  AT K=   3, I=   2, J=  28
=======
 = 0.1870    (WHEN MIN. R.F.=1)  AT K=   3, I=   2, J=  31

 MAXIMUM STEPSIZE WHICH MEETS STABILITY CRITERION OF THE ADVECTION TERM
 (FOR PURE FINITE-DIFFERENCE OPTION, MIXELM=0) 
 = 0.1249    (WHEN MIN. R.F.=1)  AT K=   3, I=   2, J=  30
>>>>>>> Stashed changes


 TOTAL NUMBER OF POINT SOURCES/SINKS PRESENT IN THE FLOW MODEL =   240

 MAXIMUM STEPSIZE WHICH MEETS STABILITY CRITERION OF THE SINK & SOURCE TERM
 = 0.1000E+31(WHEN MIN. R.F.=1)  AT K=   0, I=   0, J=   0

 MAXIMUM STEPSIZE WHICH MEETS STABILITY CRITERION OF THE DISPERSION TERM
<<<<<<< Updated upstream
 = 0.6197E-02(WHEN MIN. R.F.=1)  AT K=   3, I=   2, J=  31
     1 CALLS TO GCG PACKAGE FOR TRANSPORT TIME STEP   6 IN FLOW TIME STEP  57 STRESS PERIOD   2
    15 TOTAL ITERATIONS
 
 SOLVING FOR HEAD 
 FLOW MODEL IS TRANSIENT
 FLOW MODEL CONTAINS CONSTANT-HEAD CELLS


 MAXIMUM STEPSIZE DURING WHICH ANY PARTICLE CANNOT MOVE MORE THAN ONE CELL
 = 0.1633    (WHEN MIN. R.F.=1)  AT K=   3, I=   2, J=  29

 MAXIMUM STEPSIZE WHICH MEETS STABILITY CRITERION OF THE ADVECTION TERM
 (FOR PURE FINITE-DIFFERENCE OPTION, MIXELM=0) 
 = 0.1132    (WHEN MIN. R.F.=1)  AT K=   3, I=   2, J=  28
=======
 = 0.6700E-02(WHEN MIN. R.F.=1)  AT K=   3, I=   2, J=  30
>>>>>>> Stashed changes


     1 CALLS TO GCG PACKAGE FOR TRANSPORT TIME STEP   1 IN FLOW TIME STEP  53 STRESS PERIOD   2
    16 TOTAL ITERATIONS

<<<<<<< Updated upstream
 MAXIMUM STEPSIZE WHICH MEETS STABILITY CRITERION OF THE DISPERSION TERM
 = 0.6197E-02(WHEN MIN. R.F.=1)  AT K=   3, I=   2, J=  31
     1 CALLS TO GCG PACKAGE FOR TRANSPORT TIME STEP   7 IN FLOW TIME STEP  57 STRESS PERIOD   2
    15 TOTAL ITERATIONS
=======
 OUTPUT CONTROL FOR STRESS PERIOD    2   TIME STEP  53
    SAVE HEAD FOR ALL LAYERS
    SAVE BUDGET
>>>>>>> Stashed changes
 
 SOLVING FOR HEAD 
 FLOW MODEL IS TRANSIENT
 FLOW MODEL CONTAINS CONSTANT-HEAD CELLS


 MAXIMUM STEPSIZE DURING WHICH ANY PARTICLE CANNOT MOVE MORE THAN ONE CELL
<<<<<<< Updated upstream
 = 0.1633    (WHEN MIN. R.F.=1)  AT K=   3, I=   2, J=  29

 MAXIMUM STEPSIZE WHICH MEETS STABILITY CRITERION OF THE ADVECTION TERM
 (FOR PURE FINITE-DIFFERENCE OPTION, MIXELM=0) 
 = 0.1132    (WHEN MIN. R.F.=1)  AT K=   3, I=   2, J=  28
=======
 = 0.1870    (WHEN MIN. R.F.=1)  AT K=   3, I=   2, J=  31

 MAXIMUM STEPSIZE WHICH MEETS STABILITY CRITERION OF THE ADVECTION TERM
 (FOR PURE FINITE-DIFFERENCE OPTION, MIXELM=0) 
 = 0.1249    (WHEN MIN. R.F.=1)  AT K=   3, I=   2, J=  30
>>>>>>> Stashed changes


 TOTAL NUMBER OF POINT SOURCES/SINKS PRESENT IN THE FLOW MODEL =   240

 MAXIMUM STEPSIZE WHICH MEETS STABILITY CRITERION OF THE SINK & SOURCE TERM
 = 0.1000E+31(WHEN MIN. R.F.=1)  AT K=   0, I=   0, J=   0

 MAXIMUM STEPSIZE WHICH MEETS STABILITY CRITERION OF THE DISPERSION TERM
<<<<<<< Updated upstream
 = 0.6197E-02(WHEN MIN. R.F.=1)  AT K=   3, I=   2, J=  31
     1 CALLS TO GCG PACKAGE FOR TRANSPORT TIME STEP   8 IN FLOW TIME STEP  57 STRESS PERIOD   2
    15 TOTAL ITERATIONS
=======
 = 0.6700E-02(WHEN MIN. R.F.=1)  AT K=   3, I=   2, J=  30
     1 CALLS TO GCG PACKAGE FOR TRANSPORT TIME STEP   2 IN FLOW TIME STEP  53 STRESS PERIOD   2
    16 TOTAL ITERATIONS
>>>>>>> Stashed changes
 
 SOLVING FOR HEAD 
 FLOW MODEL IS TRANSIENT
 FLOW MODEL CONTAINS CONSTANT-HEAD CELLS


 MAXIMUM STEPSIZE DURING WHICH ANY PARTICLE CANNOT MOVE MORE THAN ONE CELL
<<<<<<< Updated upstream
 = 0.1633    (WHEN MIN. R.F.=1)  AT K=   3, I=   2, J=  29

 MAXIMUM STEPSIZE WHICH MEETS STABILITY CRITERION OF THE ADVECTION TERM
 (FOR PURE FINITE-DIFFERENCE OPTION, MIXELM=0) 
 = 0.1132    (WHEN MIN. R.F.=1)  AT K=   3, I=   2, J=  28
=======
 = 0.1870    (WHEN MIN. R.F.=1)  AT K=   3, I=   2, J=  31

 MAXIMUM STEPSIZE WHICH MEETS STABILITY CRITERION OF THE ADVECTION TERM
 (FOR PURE FINITE-DIFFERENCE OPTION, MIXELM=0) 
 = 0.1249    (WHEN MIN. R.F.=1)  AT K=   3, I=   2, J=  30
>>>>>>> Stashed changes


 TOTAL NUMBER OF POINT SOURCES/SINKS PRESENT IN THE FLOW MODEL =   240

 MAXIMUM STEPSIZE WHICH MEETS STABILITY CRITERION OF THE SINK & SOURCE TERM
 = 0.1000E+31(WHEN MIN. R.F.=1)  AT K=   0, I=   0, J=   0

 MAXIMUM STEPSIZE WHICH MEETS STABILITY CRITERION OF THE DISPERSION TERM
<<<<<<< Updated upstream
 = 0.6197E-02(WHEN MIN. R.F.=1)  AT K=   3, I=   2, J=  31
     1 CALLS TO GCG PACKAGE FOR TRANSPORT TIME STEP   9 IN FLOW TIME STEP  57 STRESS PERIOD   2
     6 TOTAL ITERATIONS
  MAXIMUM CONCENTRATION CHANGES FOR EACH ITERATION:
  MAX. CHANGE LAYER,ROW,COL MAX. CHANGE LAYER,ROW,COL MAX. CHANGE LAYER,ROW,COL MAX. CHANGE LAYER,ROW,COL MAX. CHANGE LAYER,ROW,COL
 ------------------------------------------------------------------------------------------------------------------------------------
   0.1603E-03 ( 14,  3, 51)  0.8348E-05 (  5,  2, 64)  0.1676E-05 (  6,  1, 56)  0.3735E-06 (  3,  3, 31)  0.1817E-06 (  3,  3, 30)
   0.7347E-07 (  4,  3, 28)


                                          ================================================
                                                         FROM TIME =   58.000     TO    59.000    

=======
 = 0.6700E-02(WHEN MIN. R.F.=1)  AT K=   3, I=   2, J=  30
     1 CALLS TO GCG PACKAGE FOR TRANSPORT TIME STEP   3 IN FLOW TIME STEP  53 STRESS PERIOD   2
    16 TOTAL ITERATIONS
>>>>>>> Stashed changes
 
 SOLVING FOR HEAD 
 FLOW MODEL IS TRANSIENT
 FLOW MODEL CONTAINS CONSTANT-HEAD CELLS


 MAXIMUM STEPSIZE DURING WHICH ANY PARTICLE CANNOT MOVE MORE THAN ONE CELL
<<<<<<< Updated upstream
 = 0.1633    (WHEN MIN. R.F.=1)  AT K=   3, I=   2, J=  29

 MAXIMUM STEPSIZE WHICH MEETS STABILITY CRITERION OF THE ADVECTION TERM
 (FOR PURE FINITE-DIFFERENCE OPTION, MIXELM=0) 
 = 0.1132    (WHEN MIN. R.F.=1)  AT K=   3, I=   2, J=  28
=======
 = 0.1870    (WHEN MIN. R.F.=1)  AT K=   3, I=   2, J=  31

 MAXIMUM STEPSIZE WHICH MEETS STABILITY CRITERION OF THE ADVECTION TERM
 (FOR PURE FINITE-DIFFERENCE OPTION, MIXELM=0) 
 = 0.1249    (WHEN MIN. R.F.=1)  AT K=   3, I=   2, J=  30
>>>>>>> Stashed changes


 TOTAL NUMBER OF POINT SOURCES/SINKS PRESENT IN THE FLOW MODEL =   240

 MAXIMUM STEPSIZE WHICH MEETS STABILITY CRITERION OF THE SINK & SOURCE TERM
 = 0.1000E+31(WHEN MIN. R.F.=1)  AT K=   0, I=   0, J=   0

 MAXIMUM STEPSIZE WHICH MEETS STABILITY CRITERION OF THE DISPERSION TERM
<<<<<<< Updated upstream
 = 0.6197E-02(WHEN MIN. R.F.=1)  AT K=   3, I=   2, J=  31


     1 CALLS TO GCG PACKAGE FOR TRANSPORT TIME STEP   1 IN FLOW TIME STEP  58 STRESS PERIOD   2
    15 TOTAL ITERATIONS

 NO OUTPUT CONTROL FOR STRESS PERIOD    2   TIME STEP  58
=======
 = 0.6700E-02(WHEN MIN. R.F.=1)  AT K=   3, I=   2, J=  30
     1 CALLS TO GCG PACKAGE FOR TRANSPORT TIME STEP   4 IN FLOW TIME STEP  53 STRESS PERIOD   2
    16 TOTAL ITERATIONS
>>>>>>> Stashed changes
 
 SOLVING FOR HEAD 
 FLOW MODEL IS TRANSIENT
 FLOW MODEL CONTAINS CONSTANT-HEAD CELLS


 MAXIMUM STEPSIZE DURING WHICH ANY PARTICLE CANNOT MOVE MORE THAN ONE CELL
<<<<<<< Updated upstream
 = 0.1633    (WHEN MIN. R.F.=1)  AT K=   3, I=   2, J=  29

 MAXIMUM STEPSIZE WHICH MEETS STABILITY CRITERION OF THE ADVECTION TERM
 (FOR PURE FINITE-DIFFERENCE OPTION, MIXELM=0) 
 = 0.1132    (WHEN MIN. R.F.=1)  AT K=   3, I=   2, J=  28
=======
 = 0.1870    (WHEN MIN. R.F.=1)  AT K=   3, I=   2, J=  31

 MAXIMUM STEPSIZE WHICH MEETS STABILITY CRITERION OF THE ADVECTION TERM
 (FOR PURE FINITE-DIFFERENCE OPTION, MIXELM=0) 
 = 0.1249    (WHEN MIN. R.F.=1)  AT K=   3, I=   2, J=  30
>>>>>>> Stashed changes


 TOTAL NUMBER OF POINT SOURCES/SINKS PRESENT IN THE FLOW MODEL =   240

 MAXIMUM STEPSIZE WHICH MEETS STABILITY CRITERION OF THE SINK & SOURCE TERM
 = 0.1000E+31(WHEN MIN. R.F.=1)  AT K=   0, I=   0, J=   0

 MAXIMUM STEPSIZE WHICH MEETS STABILITY CRITERION OF THE DISPERSION TERM
<<<<<<< Updated upstream
 = 0.6197E-02(WHEN MIN. R.F.=1)  AT K=   3, I=   2, J=  31
     1 CALLS TO GCG PACKAGE FOR TRANSPORT TIME STEP   2 IN FLOW TIME STEP  58 STRESS PERIOD   2
    15 TOTAL ITERATIONS
=======
 = 0.6700E-02(WHEN MIN. R.F.=1)  AT K=   3, I=   2, J=  30
     1 CALLS TO GCG PACKAGE FOR TRANSPORT TIME STEP   5 IN FLOW TIME STEP  53 STRESS PERIOD   2
    16 TOTAL ITERATIONS
>>>>>>> Stashed changes
 
 SOLVING FOR HEAD 
 FLOW MODEL IS TRANSIENT
 FLOW MODEL CONTAINS CONSTANT-HEAD CELLS


 MAXIMUM STEPSIZE DURING WHICH ANY PARTICLE CANNOT MOVE MORE THAN ONE CELL
<<<<<<< Updated upstream
 = 0.1633    (WHEN MIN. R.F.=1)  AT K=   3, I=   2, J=  29

 MAXIMUM STEPSIZE WHICH MEETS STABILITY CRITERION OF THE ADVECTION TERM
 (FOR PURE FINITE-DIFFERENCE OPTION, MIXELM=0) 
 = 0.1132    (WHEN MIN. R.F.=1)  AT K=   3, I=   2, J=  28
=======
 = 0.1870    (WHEN MIN. R.F.=1)  AT K=   3, I=   2, J=  31

 MAXIMUM STEPSIZE WHICH MEETS STABILITY CRITERION OF THE ADVECTION TERM
 (FOR PURE FINITE-DIFFERENCE OPTION, MIXELM=0) 
 = 0.1249    (WHEN MIN. R.F.=1)  AT K=   3, I=   2, J=  30
>>>>>>> Stashed changes


 TOTAL NUMBER OF POINT SOURCES/SINKS PRESENT IN THE FLOW MODEL =   240

 MAXIMUM STEPSIZE WHICH MEETS STABILITY CRITERION OF THE SINK & SOURCE TERM
 = 0.1000E+31(WHEN MIN. R.F.=1)  AT K=   0, I=   0, J=   0

 MAXIMUM STEPSIZE WHICH MEETS STABILITY CRITERION OF THE DISPERSION TERM
<<<<<<< Updated upstream
 = 0.6197E-02(WHEN MIN. R.F.=1)  AT K=   3, I=   2, J=  31
     1 CALLS TO GCG PACKAGE FOR TRANSPORT TIME STEP   3 IN FLOW TIME STEP  58 STRESS PERIOD   2
    15 TOTAL ITERATIONS
=======
 = 0.6700E-02(WHEN MIN. R.F.=1)  AT K=   3, I=   2, J=  30
     1 CALLS TO GCG PACKAGE FOR TRANSPORT TIME STEP   6 IN FLOW TIME STEP  53 STRESS PERIOD   2
    16 TOTAL ITERATIONS
>>>>>>> Stashed changes
 
 SOLVING FOR HEAD 
 FLOW MODEL IS TRANSIENT
 FLOW MODEL CONTAINS CONSTANT-HEAD CELLS


 MAXIMUM STEPSIZE DURING WHICH ANY PARTICLE CANNOT MOVE MORE THAN ONE CELL
<<<<<<< Updated upstream
 = 0.1633    (WHEN MIN. R.F.=1)  AT K=   3, I=   2, J=  29

 MAXIMUM STEPSIZE WHICH MEETS STABILITY CRITERION OF THE ADVECTION TERM
 (FOR PURE FINITE-DIFFERENCE OPTION, MIXELM=0) 
 = 0.1132    (WHEN MIN. R.F.=1)  AT K=   3, I=   2, J=  28
=======
 = 0.1870    (WHEN MIN. R.F.=1)  AT K=   3, I=   2, J=  31

 MAXIMUM STEPSIZE WHICH MEETS STABILITY CRITERION OF THE ADVECTION TERM
 (FOR PURE FINITE-DIFFERENCE OPTION, MIXELM=0) 
 = 0.1249    (WHEN MIN. R.F.=1)  AT K=   3, I=   2, J=  30
>>>>>>> Stashed changes


 TOTAL NUMBER OF POINT SOURCES/SINKS PRESENT IN THE FLOW MODEL =   240

 MAXIMUM STEPSIZE WHICH MEETS STABILITY CRITERION OF THE SINK & SOURCE TERM
 = 0.1000E+31(WHEN MIN. R.F.=1)  AT K=   0, I=   0, J=   0

 MAXIMUM STEPSIZE WHICH MEETS STABILITY CRITERION OF THE DISPERSION TERM
<<<<<<< Updated upstream
 = 0.6197E-02(WHEN MIN. R.F.=1)  AT K=   3, I=   2, J=  31
     1 CALLS TO GCG PACKAGE FOR TRANSPORT TIME STEP   4 IN FLOW TIME STEP  58 STRESS PERIOD   2
    15 TOTAL ITERATIONS
=======
 = 0.6700E-02(WHEN MIN. R.F.=1)  AT K=   3, I=   2, J=  30
     1 CALLS TO GCG PACKAGE FOR TRANSPORT TIME STEP   7 IN FLOW TIME STEP  53 STRESS PERIOD   2
    16 TOTAL ITERATIONS
>>>>>>> Stashed changes
 
 SOLVING FOR HEAD 
 FLOW MODEL IS TRANSIENT
 FLOW MODEL CONTAINS CONSTANT-HEAD CELLS


 MAXIMUM STEPSIZE DURING WHICH ANY PARTICLE CANNOT MOVE MORE THAN ONE CELL
<<<<<<< Updated upstream
 = 0.1633    (WHEN MIN. R.F.=1)  AT K=   3, I=   2, J=  29

 MAXIMUM STEPSIZE WHICH MEETS STABILITY CRITERION OF THE ADVECTION TERM
 (FOR PURE FINITE-DIFFERENCE OPTION, MIXELM=0) 
 = 0.1132    (WHEN MIN. R.F.=1)  AT K=   3, I=   2, J=  28
=======
 = 0.1870    (WHEN MIN. R.F.=1)  AT K=   3, I=   2, J=  31

 MAXIMUM STEPSIZE WHICH MEETS STABILITY CRITERION OF THE ADVECTION TERM
 (FOR PURE FINITE-DIFFERENCE OPTION, MIXELM=0) 
 = 0.1249    (WHEN MIN. R.F.=1)  AT K=   3, I=   2, J=  30
>>>>>>> Stashed changes


 TOTAL NUMBER OF POINT SOURCES/SINKS PRESENT IN THE FLOW MODEL =   240

 MAXIMUM STEPSIZE WHICH MEETS STABILITY CRITERION OF THE SINK & SOURCE TERM
 = 0.1000E+31(WHEN MIN. R.F.=1)  AT K=   0, I=   0, J=   0

 MAXIMUM STEPSIZE WHICH MEETS STABILITY CRITERION OF THE DISPERSION TERM
<<<<<<< Updated upstream
 = 0.6197E-02(WHEN MIN. R.F.=1)  AT K=   3, I=   2, J=  31
     1 CALLS TO GCG PACKAGE FOR TRANSPORT TIME STEP   5 IN FLOW TIME STEP  58 STRESS PERIOD   2
    15 TOTAL ITERATIONS
=======
 = 0.6700E-02(WHEN MIN. R.F.=1)  AT K=   3, I=   2, J=  30
     1 CALLS TO GCG PACKAGE FOR TRANSPORT TIME STEP   8 IN FLOW TIME STEP  53 STRESS PERIOD   2
     6 TOTAL ITERATIONS
  MAXIMUM CONCENTRATION CHANGES FOR EACH ITERATION:
  MAX. CHANGE LAYER,ROW,COL MAX. CHANGE LAYER,ROW,COL MAX. CHANGE LAYER,ROW,COL MAX. CHANGE LAYER,ROW,COL MAX. CHANGE LAYER,ROW,COL
 ------------------------------------------------------------------------------------------------------------------------------------
   0.1481E-03 ( 14,  3, 46)  0.6030E-05 (  5,  2, 61)  0.1305E-05 (  4,  2, 44)  0.4753E-06 (  3,  2, 37)  0.1429E-06 (  4,  1, 31)
   0.5719E-07 (  3,  1, 31)
 UBDSV1 SAVING "         STORAGE" ON UNIT  53 AT TIME STEP 53, STRESS PERIOD   2
 UBDSV2 SAVING "   CONSTANT HEAD" ON UNIT  53 AT TIME STEP 53, STRESS PERIOD   2
 UBDSV1 SAVING "FLOW RIGHT FACE " ON UNIT  53 AT TIME STEP 53, STRESS PERIOD   2
 UBDSV1 SAVING "FLOW FRONT FACE " ON UNIT  53 AT TIME STEP 53, STRESS PERIOD   2
 UBDSV1 SAVING "FLOW LOWER FACE " ON UNIT  53 AT TIME STEP 53, STRESS PERIOD   2
 UBDSV1 SAVING "            DCDT" ON UNIT  53 AT TIME STEP 53, STRESS PERIOD   2

 HEAD WILL BE SAVED ON UNIT   51 AT END OF TIME STEP  53, STRESS PERIOD    2


                                          ================================================
                                                         FROM TIME =   54.000     TO    55.000    

>>>>>>> Stashed changes
 
 SOLVING FOR HEAD 
 FLOW MODEL IS TRANSIENT
 FLOW MODEL CONTAINS CONSTANT-HEAD CELLS


 MAXIMUM STEPSIZE DURING WHICH ANY PARTICLE CANNOT MOVE MORE THAN ONE CELL
<<<<<<< Updated upstream
 = 0.1633    (WHEN MIN. R.F.=1)  AT K=   3, I=   2, J=  29

 MAXIMUM STEPSIZE WHICH MEETS STABILITY CRITERION OF THE ADVECTION TERM
 (FOR PURE FINITE-DIFFERENCE OPTION, MIXELM=0) 
 = 0.1132    (WHEN MIN. R.F.=1)  AT K=   3, I=   2, J=  28
=======
 = 0.1870    (WHEN MIN. R.F.=1)  AT K=   3, I=   2, J=  31

 MAXIMUM STEPSIZE WHICH MEETS STABILITY CRITERION OF THE ADVECTION TERM
 (FOR PURE FINITE-DIFFERENCE OPTION, MIXELM=0) 
 = 0.1249    (WHEN MIN. R.F.=1)  AT K=   3, I=   2, J=  30
>>>>>>> Stashed changes


 TOTAL NUMBER OF POINT SOURCES/SINKS PRESENT IN THE FLOW MODEL =   240

 MAXIMUM STEPSIZE WHICH MEETS STABILITY CRITERION OF THE SINK & SOURCE TERM
 = 0.1000E+31(WHEN MIN. R.F.=1)  AT K=   0, I=   0, J=   0

 MAXIMUM STEPSIZE WHICH MEETS STABILITY CRITERION OF THE DISPERSION TERM
<<<<<<< Updated upstream
 = 0.6197E-02(WHEN MIN. R.F.=1)  AT K=   3, I=   2, J=  31
     1 CALLS TO GCG PACKAGE FOR TRANSPORT TIME STEP   6 IN FLOW TIME STEP  58 STRESS PERIOD   2
    15 TOTAL ITERATIONS
=======
 = 0.6700E-02(WHEN MIN. R.F.=1)  AT K=   3, I=   2, J=  30


     1 CALLS TO GCG PACKAGE FOR TRANSPORT TIME STEP   1 IN FLOW TIME STEP  54 STRESS PERIOD   2
    16 TOTAL ITERATIONS

 OUTPUT CONTROL FOR STRESS PERIOD    2   TIME STEP  54
    SAVE HEAD FOR ALL LAYERS
    SAVE BUDGET
>>>>>>> Stashed changes
 
 SOLVING FOR HEAD 
 FLOW MODEL IS TRANSIENT
 FLOW MODEL CONTAINS CONSTANT-HEAD CELLS


 MAXIMUM STEPSIZE DURING WHICH ANY PARTICLE CANNOT MOVE MORE THAN ONE CELL
<<<<<<< Updated upstream
 = 0.1633    (WHEN MIN. R.F.=1)  AT K=   3, I=   2, J=  29

 MAXIMUM STEPSIZE WHICH MEETS STABILITY CRITERION OF THE ADVECTION TERM
 (FOR PURE FINITE-DIFFERENCE OPTION, MIXELM=0) 
 = 0.1132    (WHEN MIN. R.F.=1)  AT K=   3, I=   2, J=  28
=======
 = 0.1870    (WHEN MIN. R.F.=1)  AT K=   3, I=   2, J=  31

 MAXIMUM STEPSIZE WHICH MEETS STABILITY CRITERION OF THE ADVECTION TERM
 (FOR PURE FINITE-DIFFERENCE OPTION, MIXELM=0) 
 = 0.1249    (WHEN MIN. R.F.=1)  AT K=   3, I=   2, J=  30
>>>>>>> Stashed changes


 TOTAL NUMBER OF POINT SOURCES/SINKS PRESENT IN THE FLOW MODEL =   240

 MAXIMUM STEPSIZE WHICH MEETS STABILITY CRITERION OF THE SINK & SOURCE TERM
 = 0.1000E+31(WHEN MIN. R.F.=1)  AT K=   0, I=   0, J=   0

 MAXIMUM STEPSIZE WHICH MEETS STABILITY CRITERION OF THE DISPERSION TERM
<<<<<<< Updated upstream
 = 0.6197E-02(WHEN MIN. R.F.=1)  AT K=   3, I=   2, J=  31
     1 CALLS TO GCG PACKAGE FOR TRANSPORT TIME STEP   7 IN FLOW TIME STEP  58 STRESS PERIOD   2
    15 TOTAL ITERATIONS
=======
 = 0.6700E-02(WHEN MIN. R.F.=1)  AT K=   3, I=   2, J=  30
     1 CALLS TO GCG PACKAGE FOR TRANSPORT TIME STEP   2 IN FLOW TIME STEP  54 STRESS PERIOD   2
    16 TOTAL ITERATIONS
>>>>>>> Stashed changes
 
 SOLVING FOR HEAD 
 FLOW MODEL IS TRANSIENT
 FLOW MODEL CONTAINS CONSTANT-HEAD CELLS


 MAXIMUM STEPSIZE DURING WHICH ANY PARTICLE CANNOT MOVE MORE THAN ONE CELL
<<<<<<< Updated upstream
 = 0.1633    (WHEN MIN. R.F.=1)  AT K=   3, I=   2, J=  29

 MAXIMUM STEPSIZE WHICH MEETS STABILITY CRITERION OF THE ADVECTION TERM
 (FOR PURE FINITE-DIFFERENCE OPTION, MIXELM=0) 
 = 0.1132    (WHEN MIN. R.F.=1)  AT K=   3, I=   2, J=  28
=======
 = 0.1870    (WHEN MIN. R.F.=1)  AT K=   3, I=   2, J=  31

 MAXIMUM STEPSIZE WHICH MEETS STABILITY CRITERION OF THE ADVECTION TERM
 (FOR PURE FINITE-DIFFERENCE OPTION, MIXELM=0) 
 = 0.1249    (WHEN MIN. R.F.=1)  AT K=   3, I=   2, J=  30
>>>>>>> Stashed changes


 TOTAL NUMBER OF POINT SOURCES/SINKS PRESENT IN THE FLOW MODEL =   240

 MAXIMUM STEPSIZE WHICH MEETS STABILITY CRITERION OF THE SINK & SOURCE TERM
 = 0.1000E+31(WHEN MIN. R.F.=1)  AT K=   0, I=   0, J=   0

 MAXIMUM STEPSIZE WHICH MEETS STABILITY CRITERION OF THE DISPERSION TERM
<<<<<<< Updated upstream
 = 0.6197E-02(WHEN MIN. R.F.=1)  AT K=   3, I=   2, J=  31
     1 CALLS TO GCG PACKAGE FOR TRANSPORT TIME STEP   8 IN FLOW TIME STEP  58 STRESS PERIOD   2
    15 TOTAL ITERATIONS
=======
 = 0.6700E-02(WHEN MIN. R.F.=1)  AT K=   3, I=   2, J=  30
     1 CALLS TO GCG PACKAGE FOR TRANSPORT TIME STEP   3 IN FLOW TIME STEP  54 STRESS PERIOD   2
    16 TOTAL ITERATIONS
>>>>>>> Stashed changes
 
 SOLVING FOR HEAD 
 FLOW MODEL IS TRANSIENT
 FLOW MODEL CONTAINS CONSTANT-HEAD CELLS


 MAXIMUM STEPSIZE DURING WHICH ANY PARTICLE CANNOT MOVE MORE THAN ONE CELL
<<<<<<< Updated upstream
 = 0.1633    (WHEN MIN. R.F.=1)  AT K=   3, I=   2, J=  29

 MAXIMUM STEPSIZE WHICH MEETS STABILITY CRITERION OF THE ADVECTION TERM
 (FOR PURE FINITE-DIFFERENCE OPTION, MIXELM=0) 
 = 0.1132    (WHEN MIN. R.F.=1)  AT K=   3, I=   2, J=  28
=======
 = 0.1870    (WHEN MIN. R.F.=1)  AT K=   3, I=   2, J=  31

 MAXIMUM STEPSIZE WHICH MEETS STABILITY CRITERION OF THE ADVECTION TERM
 (FOR PURE FINITE-DIFFERENCE OPTION, MIXELM=0) 
 = 0.1249    (WHEN MIN. R.F.=1)  AT K=   3, I=   2, J=  30
>>>>>>> Stashed changes


 TOTAL NUMBER OF POINT SOURCES/SINKS PRESENT IN THE FLOW MODEL =   240

 MAXIMUM STEPSIZE WHICH MEETS STABILITY CRITERION OF THE SINK & SOURCE TERM
 = 0.1000E+31(WHEN MIN. R.F.=1)  AT K=   0, I=   0, J=   0

 MAXIMUM STEPSIZE WHICH MEETS STABILITY CRITERION OF THE DISPERSION TERM
<<<<<<< Updated upstream
 = 0.6197E-02(WHEN MIN. R.F.=1)  AT K=   3, I=   2, J=  31
     1 CALLS TO GCG PACKAGE FOR TRANSPORT TIME STEP   9 IN FLOW TIME STEP  58 STRESS PERIOD   2
     6 TOTAL ITERATIONS
  MAXIMUM CONCENTRATION CHANGES FOR EACH ITERATION:
  MAX. CHANGE LAYER,ROW,COL MAX. CHANGE LAYER,ROW,COL MAX. CHANGE LAYER,ROW,COL MAX. CHANGE LAYER,ROW,COL MAX. CHANGE LAYER,ROW,COL
 ------------------------------------------------------------------------------------------------------------------------------------
   0.1587E-03 ( 14,  3, 51)  0.8099E-05 (  5,  2, 64)  0.1619E-05 (  6,  1, 56)  0.3457E-06 (  3,  3, 31)  0.1703E-06 (  3,  3, 30)
   0.6928E-07 (  4,  3, 28)


                                          ================================================
                                                         FROM TIME =   59.000     TO    60.000    

=======
 = 0.6700E-02(WHEN MIN. R.F.=1)  AT K=   3, I=   2, J=  30
     1 CALLS TO GCG PACKAGE FOR TRANSPORT TIME STEP   4 IN FLOW TIME STEP  54 STRESS PERIOD   2
    16 TOTAL ITERATIONS
>>>>>>> Stashed changes
 
 SOLVING FOR HEAD 
 FLOW MODEL IS TRANSIENT
 FLOW MODEL CONTAINS CONSTANT-HEAD CELLS


 MAXIMUM STEPSIZE DURING WHICH ANY PARTICLE CANNOT MOVE MORE THAN ONE CELL
<<<<<<< Updated upstream
 = 0.1633    (WHEN MIN. R.F.=1)  AT K=   3, I=   2, J=  29

 MAXIMUM STEPSIZE WHICH MEETS STABILITY CRITERION OF THE ADVECTION TERM
 (FOR PURE FINITE-DIFFERENCE OPTION, MIXELM=0) 
 = 0.1132    (WHEN MIN. R.F.=1)  AT K=   3, I=   2, J=  28
=======
 = 0.1870    (WHEN MIN. R.F.=1)  AT K=   3, I=   2, J=  31

 MAXIMUM STEPSIZE WHICH MEETS STABILITY CRITERION OF THE ADVECTION TERM
 (FOR PURE FINITE-DIFFERENCE OPTION, MIXELM=0) 
 = 0.1249    (WHEN MIN. R.F.=1)  AT K=   3, I=   2, J=  30
>>>>>>> Stashed changes


 TOTAL NUMBER OF POINT SOURCES/SINKS PRESENT IN THE FLOW MODEL =   240

 MAXIMUM STEPSIZE WHICH MEETS STABILITY CRITERION OF THE SINK & SOURCE TERM
 = 0.1000E+31(WHEN MIN. R.F.=1)  AT K=   0, I=   0, J=   0

 MAXIMUM STEPSIZE WHICH MEETS STABILITY CRITERION OF THE DISPERSION TERM
<<<<<<< Updated upstream
 = 0.6197E-02(WHEN MIN. R.F.=1)  AT K=   3, I=   2, J=  31


     1 CALLS TO GCG PACKAGE FOR TRANSPORT TIME STEP   1 IN FLOW TIME STEP  59 STRESS PERIOD   2
    15 TOTAL ITERATIONS

 NO OUTPUT CONTROL FOR STRESS PERIOD    2   TIME STEP  59
=======
 = 0.6700E-02(WHEN MIN. R.F.=1)  AT K=   3, I=   2, J=  30
     1 CALLS TO GCG PACKAGE FOR TRANSPORT TIME STEP   5 IN FLOW TIME STEP  54 STRESS PERIOD   2
    16 TOTAL ITERATIONS
>>>>>>> Stashed changes
 
 SOLVING FOR HEAD 
 FLOW MODEL IS TRANSIENT
 FLOW MODEL CONTAINS CONSTANT-HEAD CELLS


 MAXIMUM STEPSIZE DURING WHICH ANY PARTICLE CANNOT MOVE MORE THAN ONE CELL
<<<<<<< Updated upstream
 = 0.1633    (WHEN MIN. R.F.=1)  AT K=   3, I=   2, J=  29

 MAXIMUM STEPSIZE WHICH MEETS STABILITY CRITERION OF THE ADVECTION TERM
 (FOR PURE FINITE-DIFFERENCE OPTION, MIXELM=0) 
 = 0.1132    (WHEN MIN. R.F.=1)  AT K=   3, I=   2, J=  28
=======
 = 0.1870    (WHEN MIN. R.F.=1)  AT K=   3, I=   2, J=  31

 MAXIMUM STEPSIZE WHICH MEETS STABILITY CRITERION OF THE ADVECTION TERM
 (FOR PURE FINITE-DIFFERENCE OPTION, MIXELM=0) 
 = 0.1249    (WHEN MIN. R.F.=1)  AT K=   3, I=   2, J=  30
>>>>>>> Stashed changes


 TOTAL NUMBER OF POINT SOURCES/SINKS PRESENT IN THE FLOW MODEL =   240

 MAXIMUM STEPSIZE WHICH MEETS STABILITY CRITERION OF THE SINK & SOURCE TERM
 = 0.1000E+31(WHEN MIN. R.F.=1)  AT K=   0, I=   0, J=   0

 MAXIMUM STEPSIZE WHICH MEETS STABILITY CRITERION OF THE DISPERSION TERM
<<<<<<< Updated upstream
 = 0.6197E-02(WHEN MIN. R.F.=1)  AT K=   3, I=   2, J=  31
     1 CALLS TO GCG PACKAGE FOR TRANSPORT TIME STEP   2 IN FLOW TIME STEP  59 STRESS PERIOD   2
    15 TOTAL ITERATIONS
=======
 = 0.6700E-02(WHEN MIN. R.F.=1)  AT K=   3, I=   2, J=  30
     1 CALLS TO GCG PACKAGE FOR TRANSPORT TIME STEP   6 IN FLOW TIME STEP  54 STRESS PERIOD   2
    16 TOTAL ITERATIONS
>>>>>>> Stashed changes
 
 SOLVING FOR HEAD 
 FLOW MODEL IS TRANSIENT
 FLOW MODEL CONTAINS CONSTANT-HEAD CELLS


 MAXIMUM STEPSIZE DURING WHICH ANY PARTICLE CANNOT MOVE MORE THAN ONE CELL
<<<<<<< Updated upstream
 = 0.1633    (WHEN MIN. R.F.=1)  AT K=   3, I=   2, J=  29

 MAXIMUM STEPSIZE WHICH MEETS STABILITY CRITERION OF THE ADVECTION TERM
 (FOR PURE FINITE-DIFFERENCE OPTION, MIXELM=0) 
 = 0.1132    (WHEN MIN. R.F.=1)  AT K=   3, I=   2, J=  28
=======
 = 0.1870    (WHEN MIN. R.F.=1)  AT K=   3, I=   2, J=  31

 MAXIMUM STEPSIZE WHICH MEETS STABILITY CRITERION OF THE ADVECTION TERM
 (FOR PURE FINITE-DIFFERENCE OPTION, MIXELM=0) 
 = 0.1249    (WHEN MIN. R.F.=1)  AT K=   3, I=   2, J=  30
>>>>>>> Stashed changes


 TOTAL NUMBER OF POINT SOURCES/SINKS PRESENT IN THE FLOW MODEL =   240

 MAXIMUM STEPSIZE WHICH MEETS STABILITY CRITERION OF THE SINK & SOURCE TERM
 = 0.1000E+31(WHEN MIN. R.F.=1)  AT K=   0, I=   0, J=   0

 MAXIMUM STEPSIZE WHICH MEETS STABILITY CRITERION OF THE DISPERSION TERM
<<<<<<< Updated upstream
 = 0.6197E-02(WHEN MIN. R.F.=1)  AT K=   3, I=   2, J=  31
     1 CALLS TO GCG PACKAGE FOR TRANSPORT TIME STEP   3 IN FLOW TIME STEP  59 STRESS PERIOD   2
    15 TOTAL ITERATIONS
=======
 = 0.6700E-02(WHEN MIN. R.F.=1)  AT K=   3, I=   2, J=  30
     1 CALLS TO GCG PACKAGE FOR TRANSPORT TIME STEP   7 IN FLOW TIME STEP  54 STRESS PERIOD   2
    16 TOTAL ITERATIONS
>>>>>>> Stashed changes
 
 SOLVING FOR HEAD 
 FLOW MODEL IS TRANSIENT
 FLOW MODEL CONTAINS CONSTANT-HEAD CELLS


 MAXIMUM STEPSIZE DURING WHICH ANY PARTICLE CANNOT MOVE MORE THAN ONE CELL
<<<<<<< Updated upstream
 = 0.1633    (WHEN MIN. R.F.=1)  AT K=   3, I=   2, J=  29

 MAXIMUM STEPSIZE WHICH MEETS STABILITY CRITERION OF THE ADVECTION TERM
 (FOR PURE FINITE-DIFFERENCE OPTION, MIXELM=0) 
 = 0.1132    (WHEN MIN. R.F.=1)  AT K=   3, I=   2, J=  28
=======
 = 0.1870    (WHEN MIN. R.F.=1)  AT K=   3, I=   2, J=  31

 MAXIMUM STEPSIZE WHICH MEETS STABILITY CRITERION OF THE ADVECTION TERM
 (FOR PURE FINITE-DIFFERENCE OPTION, MIXELM=0) 
 = 0.1249    (WHEN MIN. R.F.=1)  AT K=   3, I=   2, J=  30
>>>>>>> Stashed changes


 TOTAL NUMBER OF POINT SOURCES/SINKS PRESENT IN THE FLOW MODEL =   240

 MAXIMUM STEPSIZE WHICH MEETS STABILITY CRITERION OF THE SINK & SOURCE TERM
 = 0.1000E+31(WHEN MIN. R.F.=1)  AT K=   0, I=   0, J=   0

 MAXIMUM STEPSIZE WHICH MEETS STABILITY CRITERION OF THE DISPERSION TERM
<<<<<<< Updated upstream
 = 0.6197E-02(WHEN MIN. R.F.=1)  AT K=   3, I=   2, J=  31
     1 CALLS TO GCG PACKAGE FOR TRANSPORT TIME STEP   4 IN FLOW TIME STEP  59 STRESS PERIOD   2
    15 TOTAL ITERATIONS
=======
 = 0.6700E-02(WHEN MIN. R.F.=1)  AT K=   3, I=   2, J=  30
     1 CALLS TO GCG PACKAGE FOR TRANSPORT TIME STEP   8 IN FLOW TIME STEP  54 STRESS PERIOD   2
     6 TOTAL ITERATIONS
  MAXIMUM CONCENTRATION CHANGES FOR EACH ITERATION:
  MAX. CHANGE LAYER,ROW,COL MAX. CHANGE LAYER,ROW,COL MAX. CHANGE LAYER,ROW,COL MAX. CHANGE LAYER,ROW,COL MAX. CHANGE LAYER,ROW,COL
 ------------------------------------------------------------------------------------------------------------------------------------
   0.1497E-03 ( 17,  1, 49)  0.5828E-05 (  5,  2, 61)  0.1245E-05 (  4,  2, 44)  0.4546E-06 (  3,  2, 37)  0.1357E-06 (  4,  1, 31)
   0.5342E-07 (  3,  1, 31)
 UBDSV1 SAVING "         STORAGE" ON UNIT  53 AT TIME STEP 54, STRESS PERIOD   2
 UBDSV2 SAVING "   CONSTANT HEAD" ON UNIT  53 AT TIME STEP 54, STRESS PERIOD   2
 UBDSV1 SAVING "FLOW RIGHT FACE " ON UNIT  53 AT TIME STEP 54, STRESS PERIOD   2
 UBDSV1 SAVING "FLOW FRONT FACE " ON UNIT  53 AT TIME STEP 54, STRESS PERIOD   2
 UBDSV1 SAVING "FLOW LOWER FACE " ON UNIT  53 AT TIME STEP 54, STRESS PERIOD   2
 UBDSV1 SAVING "            DCDT" ON UNIT  53 AT TIME STEP 54, STRESS PERIOD   2

 HEAD WILL BE SAVED ON UNIT   51 AT END OF TIME STEP  54, STRESS PERIOD    2


                                          ================================================
                                                         FROM TIME =   55.000     TO    56.000    

>>>>>>> Stashed changes
 
 SOLVING FOR HEAD 
 FLOW MODEL IS TRANSIENT
 FLOW MODEL CONTAINS CONSTANT-HEAD CELLS


 MAXIMUM STEPSIZE DURING WHICH ANY PARTICLE CANNOT MOVE MORE THAN ONE CELL
<<<<<<< Updated upstream
 = 0.1633    (WHEN MIN. R.F.=1)  AT K=   3, I=   2, J=  29

 MAXIMUM STEPSIZE WHICH MEETS STABILITY CRITERION OF THE ADVECTION TERM
 (FOR PURE FINITE-DIFFERENCE OPTION, MIXELM=0) 
 = 0.1132    (WHEN MIN. R.F.=1)  AT K=   3, I=   2, J=  28
=======
 = 0.1870    (WHEN MIN. R.F.=1)  AT K=   3, I=   2, J=  31

 MAXIMUM STEPSIZE WHICH MEETS STABILITY CRITERION OF THE ADVECTION TERM
 (FOR PURE FINITE-DIFFERENCE OPTION, MIXELM=0) 
 = 0.1249    (WHEN MIN. R.F.=1)  AT K=   3, I=   2, J=  30
>>>>>>> Stashed changes


 TOTAL NUMBER OF POINT SOURCES/SINKS PRESENT IN THE FLOW MODEL =   240

 MAXIMUM STEPSIZE WHICH MEETS STABILITY CRITERION OF THE SINK & SOURCE TERM
 = 0.1000E+31(WHEN MIN. R.F.=1)  AT K=   0, I=   0, J=   0

 MAXIMUM STEPSIZE WHICH MEETS STABILITY CRITERION OF THE DISPERSION TERM
<<<<<<< Updated upstream
 = 0.6197E-02(WHEN MIN. R.F.=1)  AT K=   3, I=   2, J=  31
     1 CALLS TO GCG PACKAGE FOR TRANSPORT TIME STEP   5 IN FLOW TIME STEP  59 STRESS PERIOD   2
    15 TOTAL ITERATIONS
=======
 = 0.6700E-02(WHEN MIN. R.F.=1)  AT K=   3, I=   2, J=  30


     1 CALLS TO GCG PACKAGE FOR TRANSPORT TIME STEP   1 IN FLOW TIME STEP  55 STRESS PERIOD   2
    16 TOTAL ITERATIONS

 OUTPUT CONTROL FOR STRESS PERIOD    2   TIME STEP  55
    SAVE HEAD FOR ALL LAYERS
    SAVE BUDGET
>>>>>>> Stashed changes
 
 SOLVING FOR HEAD 
 FLOW MODEL IS TRANSIENT
 FLOW MODEL CONTAINS CONSTANT-HEAD CELLS


 MAXIMUM STEPSIZE DURING WHICH ANY PARTICLE CANNOT MOVE MORE THAN ONE CELL
<<<<<<< Updated upstream
 = 0.1633    (WHEN MIN. R.F.=1)  AT K=   3, I=   2, J=  29

 MAXIMUM STEPSIZE WHICH MEETS STABILITY CRITERION OF THE ADVECTION TERM
 (FOR PURE FINITE-DIFFERENCE OPTION, MIXELM=0) 
 = 0.1132    (WHEN MIN. R.F.=1)  AT K=   3, I=   2, J=  28
=======
 = 0.1870    (WHEN MIN. R.F.=1)  AT K=   3, I=   2, J=  31

 MAXIMUM STEPSIZE WHICH MEETS STABILITY CRITERION OF THE ADVECTION TERM
 (FOR PURE FINITE-DIFFERENCE OPTION, MIXELM=0) 
 = 0.1249    (WHEN MIN. R.F.=1)  AT K=   3, I=   2, J=  30
>>>>>>> Stashed changes


 TOTAL NUMBER OF POINT SOURCES/SINKS PRESENT IN THE FLOW MODEL =   240

 MAXIMUM STEPSIZE WHICH MEETS STABILITY CRITERION OF THE SINK & SOURCE TERM
 = 0.1000E+31(WHEN MIN. R.F.=1)  AT K=   0, I=   0, J=   0

 MAXIMUM STEPSIZE WHICH MEETS STABILITY CRITERION OF THE DISPERSION TERM
<<<<<<< Updated upstream
 = 0.6197E-02(WHEN MIN. R.F.=1)  AT K=   3, I=   2, J=  31
     1 CALLS TO GCG PACKAGE FOR TRANSPORT TIME STEP   6 IN FLOW TIME STEP  59 STRESS PERIOD   2
    15 TOTAL ITERATIONS
=======
 = 0.6700E-02(WHEN MIN. R.F.=1)  AT K=   3, I=   2, J=  30
     1 CALLS TO GCG PACKAGE FOR TRANSPORT TIME STEP   2 IN FLOW TIME STEP  55 STRESS PERIOD   2
    16 TOTAL ITERATIONS
>>>>>>> Stashed changes
 
 SOLVING FOR HEAD 
 FLOW MODEL IS TRANSIENT
 FLOW MODEL CONTAINS CONSTANT-HEAD CELLS


 MAXIMUM STEPSIZE DURING WHICH ANY PARTICLE CANNOT MOVE MORE THAN ONE CELL
<<<<<<< Updated upstream
 = 0.1633    (WHEN MIN. R.F.=1)  AT K=   3, I=   2, J=  29

 MAXIMUM STEPSIZE WHICH MEETS STABILITY CRITERION OF THE ADVECTION TERM
 (FOR PURE FINITE-DIFFERENCE OPTION, MIXELM=0) 
 = 0.1132    (WHEN MIN. R.F.=1)  AT K=   3, I=   2, J=  28
=======
 = 0.1870    (WHEN MIN. R.F.=1)  AT K=   3, I=   2, J=  31

 MAXIMUM STEPSIZE WHICH MEETS STABILITY CRITERION OF THE ADVECTION TERM
 (FOR PURE FINITE-DIFFERENCE OPTION, MIXELM=0) 
 = 0.1249    (WHEN MIN. R.F.=1)  AT K=   3, I=   2, J=  30
>>>>>>> Stashed changes


 TOTAL NUMBER OF POINT SOURCES/SINKS PRESENT IN THE FLOW MODEL =   240

 MAXIMUM STEPSIZE WHICH MEETS STABILITY CRITERION OF THE SINK & SOURCE TERM
 = 0.1000E+31(WHEN MIN. R.F.=1)  AT K=   0, I=   0, J=   0

 MAXIMUM STEPSIZE WHICH MEETS STABILITY CRITERION OF THE DISPERSION TERM
<<<<<<< Updated upstream
 = 0.6197E-02(WHEN MIN. R.F.=1)  AT K=   3, I=   2, J=  31
     1 CALLS TO GCG PACKAGE FOR TRANSPORT TIME STEP   7 IN FLOW TIME STEP  59 STRESS PERIOD   2
    15 TOTAL ITERATIONS
=======
 = 0.6700E-02(WHEN MIN. R.F.=1)  AT K=   3, I=   2, J=  30
     1 CALLS TO GCG PACKAGE FOR TRANSPORT TIME STEP   3 IN FLOW TIME STEP  55 STRESS PERIOD   2
    16 TOTAL ITERATIONS
>>>>>>> Stashed changes
 
 SOLVING FOR HEAD 
 FLOW MODEL IS TRANSIENT
 FLOW MODEL CONTAINS CONSTANT-HEAD CELLS


 MAXIMUM STEPSIZE DURING WHICH ANY PARTICLE CANNOT MOVE MORE THAN ONE CELL
<<<<<<< Updated upstream
 = 0.1633    (WHEN MIN. R.F.=1)  AT K=   3, I=   2, J=  29

 MAXIMUM STEPSIZE WHICH MEETS STABILITY CRITERION OF THE ADVECTION TERM
 (FOR PURE FINITE-DIFFERENCE OPTION, MIXELM=0) 
 = 0.1132    (WHEN MIN. R.F.=1)  AT K=   3, I=   2, J=  28
=======
 = 0.1870    (WHEN MIN. R.F.=1)  AT K=   3, I=   2, J=  31

 MAXIMUM STEPSIZE WHICH MEETS STABILITY CRITERION OF THE ADVECTION TERM
 (FOR PURE FINITE-DIFFERENCE OPTION, MIXELM=0) 
 = 0.1249    (WHEN MIN. R.F.=1)  AT K=   3, I=   2, J=  30
>>>>>>> Stashed changes


 TOTAL NUMBER OF POINT SOURCES/SINKS PRESENT IN THE FLOW MODEL =   240

 MAXIMUM STEPSIZE WHICH MEETS STABILITY CRITERION OF THE SINK & SOURCE TERM
 = 0.1000E+31(WHEN MIN. R.F.=1)  AT K=   0, I=   0, J=   0

 MAXIMUM STEPSIZE WHICH MEETS STABILITY CRITERION OF THE DISPERSION TERM
<<<<<<< Updated upstream
 = 0.6197E-02(WHEN MIN. R.F.=1)  AT K=   3, I=   2, J=  31
     1 CALLS TO GCG PACKAGE FOR TRANSPORT TIME STEP   8 IN FLOW TIME STEP  59 STRESS PERIOD   2
    15 TOTAL ITERATIONS
=======
 = 0.6700E-02(WHEN MIN. R.F.=1)  AT K=   3, I=   2, J=  30
     1 CALLS TO GCG PACKAGE FOR TRANSPORT TIME STEP   4 IN FLOW TIME STEP  55 STRESS PERIOD   2
    16 TOTAL ITERATIONS
>>>>>>> Stashed changes
 
 SOLVING FOR HEAD 
 FLOW MODEL IS TRANSIENT
 FLOW MODEL CONTAINS CONSTANT-HEAD CELLS


 MAXIMUM STEPSIZE DURING WHICH ANY PARTICLE CANNOT MOVE MORE THAN ONE CELL
<<<<<<< Updated upstream
 = 0.1633    (WHEN MIN. R.F.=1)  AT K=   3, I=   2, J=  29

 MAXIMUM STEPSIZE WHICH MEETS STABILITY CRITERION OF THE ADVECTION TERM
 (FOR PURE FINITE-DIFFERENCE OPTION, MIXELM=0) 
 = 0.1132    (WHEN MIN. R.F.=1)  AT K=   3, I=   2, J=  28
=======
 = 0.1870    (WHEN MIN. R.F.=1)  AT K=   3, I=   2, J=  31

 MAXIMUM STEPSIZE WHICH MEETS STABILITY CRITERION OF THE ADVECTION TERM
 (FOR PURE FINITE-DIFFERENCE OPTION, MIXELM=0) 
 = 0.1249    (WHEN MIN. R.F.=1)  AT K=   3, I=   2, J=  30
>>>>>>> Stashed changes


 TOTAL NUMBER OF POINT SOURCES/SINKS PRESENT IN THE FLOW MODEL =   240

 MAXIMUM STEPSIZE WHICH MEETS STABILITY CRITERION OF THE SINK & SOURCE TERM
 = 0.1000E+31(WHEN MIN. R.F.=1)  AT K=   0, I=   0, J=   0

 MAXIMUM STEPSIZE WHICH MEETS STABILITY CRITERION OF THE DISPERSION TERM
<<<<<<< Updated upstream
 = 0.6197E-02(WHEN MIN. R.F.=1)  AT K=   3, I=   2, J=  31
     1 CALLS TO GCG PACKAGE FOR TRANSPORT TIME STEP   9 IN FLOW TIME STEP  59 STRESS PERIOD   2
     6 TOTAL ITERATIONS
  MAXIMUM CONCENTRATION CHANGES FOR EACH ITERATION:
  MAX. CHANGE LAYER,ROW,COL MAX. CHANGE LAYER,ROW,COL MAX. CHANGE LAYER,ROW,COL MAX. CHANGE LAYER,ROW,COL MAX. CHANGE LAYER,ROW,COL
 ------------------------------------------------------------------------------------------------------------------------------------
   0.1571E-03 ( 14,  3, 51)  0.7859E-05 (  5,  2, 64)  0.1564E-05 (  6,  1, 56)  0.3196E-06 (  3,  3, 31)  0.1596E-06 (  3,  3, 30)
   0.6530E-07 (  4,  3, 28)


                                          ================================================
                                                         FROM TIME =   60.000     TO    61.000    

=======
 = 0.6700E-02(WHEN MIN. R.F.=1)  AT K=   3, I=   2, J=  30
     1 CALLS TO GCG PACKAGE FOR TRANSPORT TIME STEP   5 IN FLOW TIME STEP  55 STRESS PERIOD   2
    15 TOTAL ITERATIONS
 
 SOLVING FOR HEAD 
 FLOW MODEL IS TRANSIENT
 FLOW MODEL CONTAINS CONSTANT-HEAD CELLS


 MAXIMUM STEPSIZE DURING WHICH ANY PARTICLE CANNOT MOVE MORE THAN ONE CELL
 = 0.1870    (WHEN MIN. R.F.=1)  AT K=   3, I=   2, J=  31

 MAXIMUM STEPSIZE WHICH MEETS STABILITY CRITERION OF THE ADVECTION TERM
 (FOR PURE FINITE-DIFFERENCE OPTION, MIXELM=0) 
 = 0.1249    (WHEN MIN. R.F.=1)  AT K=   3, I=   2, J=  30


 TOTAL NUMBER OF POINT SOURCES/SINKS PRESENT IN THE FLOW MODEL =   240

 MAXIMUM STEPSIZE WHICH MEETS STABILITY CRITERION OF THE SINK & SOURCE TERM
 = 0.1000E+31(WHEN MIN. R.F.=1)  AT K=   0, I=   0, J=   0

 MAXIMUM STEPSIZE WHICH MEETS STABILITY CRITERION OF THE DISPERSION TERM
 = 0.6700E-02(WHEN MIN. R.F.=1)  AT K=   3, I=   2, J=  30
     1 CALLS TO GCG PACKAGE FOR TRANSPORT TIME STEP   6 IN FLOW TIME STEP  55 STRESS PERIOD   2
    16 TOTAL ITERATIONS
>>>>>>> Stashed changes
 
 SOLVING FOR HEAD 
 FLOW MODEL IS TRANSIENT
 FLOW MODEL CONTAINS CONSTANT-HEAD CELLS


 MAXIMUM STEPSIZE DURING WHICH ANY PARTICLE CANNOT MOVE MORE THAN ONE CELL
<<<<<<< Updated upstream
 = 0.1633    (WHEN MIN. R.F.=1)  AT K=   3, I=   2, J=  29

 MAXIMUM STEPSIZE WHICH MEETS STABILITY CRITERION OF THE ADVECTION TERM
 (FOR PURE FINITE-DIFFERENCE OPTION, MIXELM=0) 
 = 0.1132    (WHEN MIN. R.F.=1)  AT K=   3, I=   2, J=  28
=======
 = 0.1870    (WHEN MIN. R.F.=1)  AT K=   3, I=   2, J=  31

 MAXIMUM STEPSIZE WHICH MEETS STABILITY CRITERION OF THE ADVECTION TERM
 (FOR PURE FINITE-DIFFERENCE OPTION, MIXELM=0) 
 = 0.1249    (WHEN MIN. R.F.=1)  AT K=   3, I=   2, J=  30
>>>>>>> Stashed changes


 TOTAL NUMBER OF POINT SOURCES/SINKS PRESENT IN THE FLOW MODEL =   240

 MAXIMUM STEPSIZE WHICH MEETS STABILITY CRITERION OF THE SINK & SOURCE TERM
 = 0.1000E+31(WHEN MIN. R.F.=1)  AT K=   0, I=   0, J=   0

 MAXIMUM STEPSIZE WHICH MEETS STABILITY CRITERION OF THE DISPERSION TERM
<<<<<<< Updated upstream
 = 0.6197E-02(WHEN MIN. R.F.=1)  AT K=   3, I=   2, J=  31


     1 CALLS TO GCG PACKAGE FOR TRANSPORT TIME STEP   1 IN FLOW TIME STEP  60 STRESS PERIOD   2
    15 TOTAL ITERATIONS

 NO OUTPUT CONTROL FOR STRESS PERIOD    2   TIME STEP  60
=======
 = 0.6700E-02(WHEN MIN. R.F.=1)  AT K=   3, I=   2, J=  30
     1 CALLS TO GCG PACKAGE FOR TRANSPORT TIME STEP   7 IN FLOW TIME STEP  55 STRESS PERIOD   2
    16 TOTAL ITERATIONS
>>>>>>> Stashed changes
 
 SOLVING FOR HEAD 
 FLOW MODEL IS TRANSIENT
 FLOW MODEL CONTAINS CONSTANT-HEAD CELLS


 MAXIMUM STEPSIZE DURING WHICH ANY PARTICLE CANNOT MOVE MORE THAN ONE CELL
<<<<<<< Updated upstream
 = 0.1633    (WHEN MIN. R.F.=1)  AT K=   3, I=   2, J=  29

 MAXIMUM STEPSIZE WHICH MEETS STABILITY CRITERION OF THE ADVECTION TERM
 (FOR PURE FINITE-DIFFERENCE OPTION, MIXELM=0) 
 = 0.1132    (WHEN MIN. R.F.=1)  AT K=   3, I=   2, J=  28
=======
 = 0.1870    (WHEN MIN. R.F.=1)  AT K=   3, I=   2, J=  31

 MAXIMUM STEPSIZE WHICH MEETS STABILITY CRITERION OF THE ADVECTION TERM
 (FOR PURE FINITE-DIFFERENCE OPTION, MIXELM=0) 
 = 0.1249    (WHEN MIN. R.F.=1)  AT K=   3, I=   2, J=  30
>>>>>>> Stashed changes


 TOTAL NUMBER OF POINT SOURCES/SINKS PRESENT IN THE FLOW MODEL =   240

 MAXIMUM STEPSIZE WHICH MEETS STABILITY CRITERION OF THE SINK & SOURCE TERM
 = 0.1000E+31(WHEN MIN. R.F.=1)  AT K=   0, I=   0, J=   0

 MAXIMUM STEPSIZE WHICH MEETS STABILITY CRITERION OF THE DISPERSION TERM
<<<<<<< Updated upstream
 = 0.6197E-02(WHEN MIN. R.F.=1)  AT K=   3, I=   2, J=  31
     1 CALLS TO GCG PACKAGE FOR TRANSPORT TIME STEP   2 IN FLOW TIME STEP  60 STRESS PERIOD   2
    15 TOTAL ITERATIONS
=======
 = 0.6700E-02(WHEN MIN. R.F.=1)  AT K=   3, I=   2, J=  30
     1 CALLS TO GCG PACKAGE FOR TRANSPORT TIME STEP   8 IN FLOW TIME STEP  55 STRESS PERIOD   2
     6 TOTAL ITERATIONS
  MAXIMUM CONCENTRATION CHANGES FOR EACH ITERATION:
  MAX. CHANGE LAYER,ROW,COL MAX. CHANGE LAYER,ROW,COL MAX. CHANGE LAYER,ROW,COL MAX. CHANGE LAYER,ROW,COL MAX. CHANGE LAYER,ROW,COL
 ------------------------------------------------------------------------------------------------------------------------------------
   0.1510E-03 ( 17,  1, 49)  0.5635E-05 (  5,  2, 61)  0.1188E-05 (  4,  2, 44)  0.4310E-06 (  3,  2, 37)  0.1276E-06 (  4,  1, 31)
   0.4927E-07 (  3,  1, 31)
 UBDSV1 SAVING "         STORAGE" ON UNIT  53 AT TIME STEP 55, STRESS PERIOD   2
 UBDSV2 SAVING "   CONSTANT HEAD" ON UNIT  53 AT TIME STEP 55, STRESS PERIOD   2
 UBDSV1 SAVING "FLOW RIGHT FACE " ON UNIT  53 AT TIME STEP 55, STRESS PERIOD   2
 UBDSV1 SAVING "FLOW FRONT FACE " ON UNIT  53 AT TIME STEP 55, STRESS PERIOD   2
 UBDSV1 SAVING "FLOW LOWER FACE " ON UNIT  53 AT TIME STEP 55, STRESS PERIOD   2
 UBDSV1 SAVING "            DCDT" ON UNIT  53 AT TIME STEP 55, STRESS PERIOD   2

 HEAD WILL BE SAVED ON UNIT   51 AT END OF TIME STEP  55, STRESS PERIOD    2


                                          ================================================
                                                         FROM TIME =   56.000     TO    57.000    

>>>>>>> Stashed changes
 
 SOLVING FOR HEAD 
 FLOW MODEL IS TRANSIENT
 FLOW MODEL CONTAINS CONSTANT-HEAD CELLS


 MAXIMUM STEPSIZE DURING WHICH ANY PARTICLE CANNOT MOVE MORE THAN ONE CELL
<<<<<<< Updated upstream
 = 0.1633    (WHEN MIN. R.F.=1)  AT K=   3, I=   2, J=  29

 MAXIMUM STEPSIZE WHICH MEETS STABILITY CRITERION OF THE ADVECTION TERM
 (FOR PURE FINITE-DIFFERENCE OPTION, MIXELM=0) 
 = 0.1132    (WHEN MIN. R.F.=1)  AT K=   3, I=   2, J=  28
=======
 = 0.1870    (WHEN MIN. R.F.=1)  AT K=   3, I=   2, J=  31

 MAXIMUM STEPSIZE WHICH MEETS STABILITY CRITERION OF THE ADVECTION TERM
 (FOR PURE FINITE-DIFFERENCE OPTION, MIXELM=0) 
 = 0.1249    (WHEN MIN. R.F.=1)  AT K=   3, I=   2, J=  30
>>>>>>> Stashed changes


 TOTAL NUMBER OF POINT SOURCES/SINKS PRESENT IN THE FLOW MODEL =   240

 MAXIMUM STEPSIZE WHICH MEETS STABILITY CRITERION OF THE SINK & SOURCE TERM
 = 0.1000E+31(WHEN MIN. R.F.=1)  AT K=   0, I=   0, J=   0

 MAXIMUM STEPSIZE WHICH MEETS STABILITY CRITERION OF THE DISPERSION TERM
<<<<<<< Updated upstream
 = 0.6197E-02(WHEN MIN. R.F.=1)  AT K=   3, I=   2, J=  31
     1 CALLS TO GCG PACKAGE FOR TRANSPORT TIME STEP   3 IN FLOW TIME STEP  60 STRESS PERIOD   2
    15 TOTAL ITERATIONS
=======
 = 0.6700E-02(WHEN MIN. R.F.=1)  AT K=   3, I=   2, J=  30


     1 CALLS TO GCG PACKAGE FOR TRANSPORT TIME STEP   1 IN FLOW TIME STEP  56 STRESS PERIOD   2
    16 TOTAL ITERATIONS

 OUTPUT CONTROL FOR STRESS PERIOD    2   TIME STEP  56
    SAVE HEAD FOR ALL LAYERS
    SAVE BUDGET
>>>>>>> Stashed changes
 
 SOLVING FOR HEAD 
 FLOW MODEL IS TRANSIENT
 FLOW MODEL CONTAINS CONSTANT-HEAD CELLS


 MAXIMUM STEPSIZE DURING WHICH ANY PARTICLE CANNOT MOVE MORE THAN ONE CELL
<<<<<<< Updated upstream
 = 0.1633    (WHEN MIN. R.F.=1)  AT K=   3, I=   2, J=  29

 MAXIMUM STEPSIZE WHICH MEETS STABILITY CRITERION OF THE ADVECTION TERM
 (FOR PURE FINITE-DIFFERENCE OPTION, MIXELM=0) 
 = 0.1132    (WHEN MIN. R.F.=1)  AT K=   3, I=   2, J=  28
=======
 = 0.1870    (WHEN MIN. R.F.=1)  AT K=   3, I=   2, J=  31

 MAXIMUM STEPSIZE WHICH MEETS STABILITY CRITERION OF THE ADVECTION TERM
 (FOR PURE FINITE-DIFFERENCE OPTION, MIXELM=0) 
 = 0.1249    (WHEN MIN. R.F.=1)  AT K=   3, I=   2, J=  30
>>>>>>> Stashed changes


 TOTAL NUMBER OF POINT SOURCES/SINKS PRESENT IN THE FLOW MODEL =   240

 MAXIMUM STEPSIZE WHICH MEETS STABILITY CRITERION OF THE SINK & SOURCE TERM
 = 0.1000E+31(WHEN MIN. R.F.=1)  AT K=   0, I=   0, J=   0

 MAXIMUM STEPSIZE WHICH MEETS STABILITY CRITERION OF THE DISPERSION TERM
<<<<<<< Updated upstream
 = 0.6197E-02(WHEN MIN. R.F.=1)  AT K=   3, I=   2, J=  31
     1 CALLS TO GCG PACKAGE FOR TRANSPORT TIME STEP   4 IN FLOW TIME STEP  60 STRESS PERIOD   2
=======
 = 0.6700E-02(WHEN MIN. R.F.=1)  AT K=   3, I=   2, J=  30
     1 CALLS TO GCG PACKAGE FOR TRANSPORT TIME STEP   2 IN FLOW TIME STEP  56 STRESS PERIOD   2
>>>>>>> Stashed changes
    15 TOTAL ITERATIONS
 
 SOLVING FOR HEAD 
 FLOW MODEL IS TRANSIENT
 FLOW MODEL CONTAINS CONSTANT-HEAD CELLS


 MAXIMUM STEPSIZE DURING WHICH ANY PARTICLE CANNOT MOVE MORE THAN ONE CELL
<<<<<<< Updated upstream
 = 0.1633    (WHEN MIN. R.F.=1)  AT K=   3, I=   2, J=  29

 MAXIMUM STEPSIZE WHICH MEETS STABILITY CRITERION OF THE ADVECTION TERM
 (FOR PURE FINITE-DIFFERENCE OPTION, MIXELM=0) 
 = 0.1132    (WHEN MIN. R.F.=1)  AT K=   3, I=   2, J=  28
=======
 = 0.1870    (WHEN MIN. R.F.=1)  AT K=   3, I=   2, J=  31

 MAXIMUM STEPSIZE WHICH MEETS STABILITY CRITERION OF THE ADVECTION TERM
 (FOR PURE FINITE-DIFFERENCE OPTION, MIXELM=0) 
 = 0.1249    (WHEN MIN. R.F.=1)  AT K=   3, I=   2, J=  30
>>>>>>> Stashed changes


 TOTAL NUMBER OF POINT SOURCES/SINKS PRESENT IN THE FLOW MODEL =   240

 MAXIMUM STEPSIZE WHICH MEETS STABILITY CRITERION OF THE SINK & SOURCE TERM
 = 0.1000E+31(WHEN MIN. R.F.=1)  AT K=   0, I=   0, J=   0

 MAXIMUM STEPSIZE WHICH MEETS STABILITY CRITERION OF THE DISPERSION TERM
<<<<<<< Updated upstream
 = 0.6197E-02(WHEN MIN. R.F.=1)  AT K=   3, I=   2, J=  31
     1 CALLS TO GCG PACKAGE FOR TRANSPORT TIME STEP   5 IN FLOW TIME STEP  60 STRESS PERIOD   2
    15 TOTAL ITERATIONS
=======
 = 0.6700E-02(WHEN MIN. R.F.=1)  AT K=   3, I=   2, J=  30
     1 CALLS TO GCG PACKAGE FOR TRANSPORT TIME STEP   3 IN FLOW TIME STEP  56 STRESS PERIOD   2
    16 TOTAL ITERATIONS
>>>>>>> Stashed changes
 
 SOLVING FOR HEAD 
 FLOW MODEL IS TRANSIENT
 FLOW MODEL CONTAINS CONSTANT-HEAD CELLS


 MAXIMUM STEPSIZE DURING WHICH ANY PARTICLE CANNOT MOVE MORE THAN ONE CELL
<<<<<<< Updated upstream
 = 0.1633    (WHEN MIN. R.F.=1)  AT K=   3, I=   2, J=  29

 MAXIMUM STEPSIZE WHICH MEETS STABILITY CRITERION OF THE ADVECTION TERM
 (FOR PURE FINITE-DIFFERENCE OPTION, MIXELM=0) 
 = 0.1132    (WHEN MIN. R.F.=1)  AT K=   3, I=   2, J=  28
=======
 = 0.1870    (WHEN MIN. R.F.=1)  AT K=   3, I=   2, J=  31

 MAXIMUM STEPSIZE WHICH MEETS STABILITY CRITERION OF THE ADVECTION TERM
 (FOR PURE FINITE-DIFFERENCE OPTION, MIXELM=0) 
 = 0.1249    (WHEN MIN. R.F.=1)  AT K=   3, I=   2, J=  30
>>>>>>> Stashed changes


 TOTAL NUMBER OF POINT SOURCES/SINKS PRESENT IN THE FLOW MODEL =   240

 MAXIMUM STEPSIZE WHICH MEETS STABILITY CRITERION OF THE SINK & SOURCE TERM
 = 0.1000E+31(WHEN MIN. R.F.=1)  AT K=   0, I=   0, J=   0

 MAXIMUM STEPSIZE WHICH MEETS STABILITY CRITERION OF THE DISPERSION TERM
<<<<<<< Updated upstream
 = 0.6197E-02(WHEN MIN. R.F.=1)  AT K=   3, I=   2, J=  31
     1 CALLS TO GCG PACKAGE FOR TRANSPORT TIME STEP   6 IN FLOW TIME STEP  60 STRESS PERIOD   2
=======
 = 0.6700E-02(WHEN MIN. R.F.=1)  AT K=   3, I=   2, J=  30
     1 CALLS TO GCG PACKAGE FOR TRANSPORT TIME STEP   4 IN FLOW TIME STEP  56 STRESS PERIOD   2
>>>>>>> Stashed changes
    15 TOTAL ITERATIONS
 
 SOLVING FOR HEAD 
 FLOW MODEL IS TRANSIENT
 FLOW MODEL CONTAINS CONSTANT-HEAD CELLS


 MAXIMUM STEPSIZE DURING WHICH ANY PARTICLE CANNOT MOVE MORE THAN ONE CELL
<<<<<<< Updated upstream
 = 0.1633    (WHEN MIN. R.F.=1)  AT K=   3, I=   2, J=  29

 MAXIMUM STEPSIZE WHICH MEETS STABILITY CRITERION OF THE ADVECTION TERM
 (FOR PURE FINITE-DIFFERENCE OPTION, MIXELM=0) 
 = 0.1132    (WHEN MIN. R.F.=1)  AT K=   3, I=   2, J=  28
=======
 = 0.1870    (WHEN MIN. R.F.=1)  AT K=   3, I=   2, J=  31

 MAXIMUM STEPSIZE WHICH MEETS STABILITY CRITERION OF THE ADVECTION TERM
 (FOR PURE FINITE-DIFFERENCE OPTION, MIXELM=0) 
 = 0.1249    (WHEN MIN. R.F.=1)  AT K=   3, I=   2, J=  30
>>>>>>> Stashed changes


 TOTAL NUMBER OF POINT SOURCES/SINKS PRESENT IN THE FLOW MODEL =   240

 MAXIMUM STEPSIZE WHICH MEETS STABILITY CRITERION OF THE SINK & SOURCE TERM
 = 0.1000E+31(WHEN MIN. R.F.=1)  AT K=   0, I=   0, J=   0

 MAXIMUM STEPSIZE WHICH MEETS STABILITY CRITERION OF THE DISPERSION TERM
<<<<<<< Updated upstream
 = 0.6197E-02(WHEN MIN. R.F.=1)  AT K=   3, I=   2, J=  31
     1 CALLS TO GCG PACKAGE FOR TRANSPORT TIME STEP   7 IN FLOW TIME STEP  60 STRESS PERIOD   2
    15 TOTAL ITERATIONS
=======
 = 0.6700E-02(WHEN MIN. R.F.=1)  AT K=   3, I=   2, J=  30
     1 CALLS TO GCG PACKAGE FOR TRANSPORT TIME STEP   5 IN FLOW TIME STEP  56 STRESS PERIOD   2
    16 TOTAL ITERATIONS
>>>>>>> Stashed changes
 
 SOLVING FOR HEAD 
 FLOW MODEL IS TRANSIENT
 FLOW MODEL CONTAINS CONSTANT-HEAD CELLS


 MAXIMUM STEPSIZE DURING WHICH ANY PARTICLE CANNOT MOVE MORE THAN ONE CELL
<<<<<<< Updated upstream
 = 0.1633    (WHEN MIN. R.F.=1)  AT K=   3, I=   2, J=  29

 MAXIMUM STEPSIZE WHICH MEETS STABILITY CRITERION OF THE ADVECTION TERM
 (FOR PURE FINITE-DIFFERENCE OPTION, MIXELM=0) 
 = 0.1132    (WHEN MIN. R.F.=1)  AT K=   3, I=   2, J=  28
=======
 = 0.1870    (WHEN MIN. R.F.=1)  AT K=   3, I=   2, J=  31

 MAXIMUM STEPSIZE WHICH MEETS STABILITY CRITERION OF THE ADVECTION TERM
 (FOR PURE FINITE-DIFFERENCE OPTION, MIXELM=0) 
 = 0.1249    (WHEN MIN. R.F.=1)  AT K=   3, I=   2, J=  30
>>>>>>> Stashed changes


 TOTAL NUMBER OF POINT SOURCES/SINKS PRESENT IN THE FLOW MODEL =   240

 MAXIMUM STEPSIZE WHICH MEETS STABILITY CRITERION OF THE SINK & SOURCE TERM
 = 0.1000E+31(WHEN MIN. R.F.=1)  AT K=   0, I=   0, J=   0

 MAXIMUM STEPSIZE WHICH MEETS STABILITY CRITERION OF THE DISPERSION TERM
<<<<<<< Updated upstream
 = 0.6197E-02(WHEN MIN. R.F.=1)  AT K=   3, I=   2, J=  31
     1 CALLS TO GCG PACKAGE FOR TRANSPORT TIME STEP   8 IN FLOW TIME STEP  60 STRESS PERIOD   2
=======
 = 0.6700E-02(WHEN MIN. R.F.=1)  AT K=   3, I=   2, J=  30
     1 CALLS TO GCG PACKAGE FOR TRANSPORT TIME STEP   6 IN FLOW TIME STEP  56 STRESS PERIOD   2
>>>>>>> Stashed changes
    15 TOTAL ITERATIONS
 
 SOLVING FOR HEAD 
 FLOW MODEL IS TRANSIENT
 FLOW MODEL CONTAINS CONSTANT-HEAD CELLS


 MAXIMUM STEPSIZE DURING WHICH ANY PARTICLE CANNOT MOVE MORE THAN ONE CELL
<<<<<<< Updated upstream
 = 0.1633    (WHEN MIN. R.F.=1)  AT K=   3, I=   2, J=  29

 MAXIMUM STEPSIZE WHICH MEETS STABILITY CRITERION OF THE ADVECTION TERM
 (FOR PURE FINITE-DIFFERENCE OPTION, MIXELM=0) 
 = 0.1132    (WHEN MIN. R.F.=1)  AT K=   3, I=   2, J=  28
=======
 = 0.1870    (WHEN MIN. R.F.=1)  AT K=   3, I=   2, J=  31

 MAXIMUM STEPSIZE WHICH MEETS STABILITY CRITERION OF THE ADVECTION TERM
 (FOR PURE FINITE-DIFFERENCE OPTION, MIXELM=0) 
 = 0.1249    (WHEN MIN. R.F.=1)  AT K=   3, I=   2, J=  30
>>>>>>> Stashed changes


 TOTAL NUMBER OF POINT SOURCES/SINKS PRESENT IN THE FLOW MODEL =   240

 MAXIMUM STEPSIZE WHICH MEETS STABILITY CRITERION OF THE SINK & SOURCE TERM
 = 0.1000E+31(WHEN MIN. R.F.=1)  AT K=   0, I=   0, J=   0

 MAXIMUM STEPSIZE WHICH MEETS STABILITY CRITERION OF THE DISPERSION TERM
<<<<<<< Updated upstream
 = 0.6197E-02(WHEN MIN. R.F.=1)  AT K=   3, I=   2, J=  31
     1 CALLS TO GCG PACKAGE FOR TRANSPORT TIME STEP   9 IN FLOW TIME STEP  60 STRESS PERIOD   2
     6 TOTAL ITERATIONS
  MAXIMUM CONCENTRATION CHANGES FOR EACH ITERATION:
  MAX. CHANGE LAYER,ROW,COL MAX. CHANGE LAYER,ROW,COL MAX. CHANGE LAYER,ROW,COL MAX. CHANGE LAYER,ROW,COL MAX. CHANGE LAYER,ROW,COL
 ------------------------------------------------------------------------------------------------------------------------------------
   0.1555E-03 ( 14,  3, 51)  0.7629E-05 (  5,  2, 64)  0.1512E-05 (  6,  1, 56)  0.2952E-06 (  3,  3, 31)  0.1495E-06 (  3,  3, 30)
   0.6151E-07 (  4,  3, 28)


                                          ================================================
                                                         FROM TIME =   61.000     TO    62.000    

=======
 = 0.6700E-02(WHEN MIN. R.F.=1)  AT K=   3, I=   2, J=  30
     1 CALLS TO GCG PACKAGE FOR TRANSPORT TIME STEP   7 IN FLOW TIME STEP  56 STRESS PERIOD   2
    16 TOTAL ITERATIONS
>>>>>>> Stashed changes
 
 SOLVING FOR HEAD 
 FLOW MODEL IS TRANSIENT
 FLOW MODEL CONTAINS CONSTANT-HEAD CELLS


 MAXIMUM STEPSIZE DURING WHICH ANY PARTICLE CANNOT MOVE MORE THAN ONE CELL
<<<<<<< Updated upstream
 = 0.1633    (WHEN MIN. R.F.=1)  AT K=   3, I=   2, J=  29

 MAXIMUM STEPSIZE WHICH MEETS STABILITY CRITERION OF THE ADVECTION TERM
 (FOR PURE FINITE-DIFFERENCE OPTION, MIXELM=0) 
 = 0.1132    (WHEN MIN. R.F.=1)  AT K=   3, I=   2, J=  28
=======
 = 0.1870    (WHEN MIN. R.F.=1)  AT K=   3, I=   2, J=  31

 MAXIMUM STEPSIZE WHICH MEETS STABILITY CRITERION OF THE ADVECTION TERM
 (FOR PURE FINITE-DIFFERENCE OPTION, MIXELM=0) 
 = 0.1249    (WHEN MIN. R.F.=1)  AT K=   3, I=   2, J=  30
>>>>>>> Stashed changes


 TOTAL NUMBER OF POINT SOURCES/SINKS PRESENT IN THE FLOW MODEL =   240

 MAXIMUM STEPSIZE WHICH MEETS STABILITY CRITERION OF THE SINK & SOURCE TERM
 = 0.1000E+31(WHEN MIN. R.F.=1)  AT K=   0, I=   0, J=   0

 MAXIMUM STEPSIZE WHICH MEETS STABILITY CRITERION OF THE DISPERSION TERM
<<<<<<< Updated upstream
 = 0.6197E-02(WHEN MIN. R.F.=1)  AT K=   3, I=   2, J=  31


     1 CALLS TO GCG PACKAGE FOR TRANSPORT TIME STEP   1 IN FLOW TIME STEP  61 STRESS PERIOD   2
    15 TOTAL ITERATIONS

 NO OUTPUT CONTROL FOR STRESS PERIOD    2   TIME STEP  61
=======
 = 0.6699E-02(WHEN MIN. R.F.=1)  AT K=   3, I=   2, J=  30
     1 CALLS TO GCG PACKAGE FOR TRANSPORT TIME STEP   8 IN FLOW TIME STEP  56 STRESS PERIOD   2
     6 TOTAL ITERATIONS
  MAXIMUM CONCENTRATION CHANGES FOR EACH ITERATION:
  MAX. CHANGE LAYER,ROW,COL MAX. CHANGE LAYER,ROW,COL MAX. CHANGE LAYER,ROW,COL MAX. CHANGE LAYER,ROW,COL MAX. CHANGE LAYER,ROW,COL
 ------------------------------------------------------------------------------------------------------------------------------------
   0.1515E-03 ( 17,  1, 49)  0.5450E-05 (  5,  2, 61)  0.1137E-05 (  4,  2, 44)  0.4089E-06 (  3,  2, 37)  0.1247E-06 (  4,  1, 31)
   0.4841E-07 (  3,  1, 31)
 UBDSV1 SAVING "         STORAGE" ON UNIT  53 AT TIME STEP 56, STRESS PERIOD   2
 UBDSV2 SAVING "   CONSTANT HEAD" ON UNIT  53 AT TIME STEP 56, STRESS PERIOD   2
 UBDSV1 SAVING "FLOW RIGHT FACE " ON UNIT  53 AT TIME STEP 56, STRESS PERIOD   2
 UBDSV1 SAVING "FLOW FRONT FACE " ON UNIT  53 AT TIME STEP 56, STRESS PERIOD   2
 UBDSV1 SAVING "FLOW LOWER FACE " ON UNIT  53 AT TIME STEP 56, STRESS PERIOD   2
 UBDSV1 SAVING "            DCDT" ON UNIT  53 AT TIME STEP 56, STRESS PERIOD   2

 HEAD WILL BE SAVED ON UNIT   51 AT END OF TIME STEP  56, STRESS PERIOD    2


                                          ================================================
                                                         FROM TIME =   57.000     TO    58.000    

>>>>>>> Stashed changes
 
 SOLVING FOR HEAD 
 FLOW MODEL IS TRANSIENT
 FLOW MODEL CONTAINS CONSTANT-HEAD CELLS


 MAXIMUM STEPSIZE DURING WHICH ANY PARTICLE CANNOT MOVE MORE THAN ONE CELL
<<<<<<< Updated upstream
 = 0.1633    (WHEN MIN. R.F.=1)  AT K=   3, I=   2, J=  29

 MAXIMUM STEPSIZE WHICH MEETS STABILITY CRITERION OF THE ADVECTION TERM
 (FOR PURE FINITE-DIFFERENCE OPTION, MIXELM=0) 
 = 0.1132    (WHEN MIN. R.F.=1)  AT K=   3, I=   2, J=  28
=======
 = 0.1870    (WHEN MIN. R.F.=1)  AT K=   3, I=   2, J=  31

 MAXIMUM STEPSIZE WHICH MEETS STABILITY CRITERION OF THE ADVECTION TERM
 (FOR PURE FINITE-DIFFERENCE OPTION, MIXELM=0) 
 = 0.1249    (WHEN MIN. R.F.=1)  AT K=   3, I=   2, J=  30
>>>>>>> Stashed changes


 TOTAL NUMBER OF POINT SOURCES/SINKS PRESENT IN THE FLOW MODEL =   240

 MAXIMUM STEPSIZE WHICH MEETS STABILITY CRITERION OF THE SINK & SOURCE TERM
 = 0.1000E+31(WHEN MIN. R.F.=1)  AT K=   0, I=   0, J=   0

 MAXIMUM STEPSIZE WHICH MEETS STABILITY CRITERION OF THE DISPERSION TERM
<<<<<<< Updated upstream
 = 0.6197E-02(WHEN MIN. R.F.=1)  AT K=   3, I=   2, J=  31
     1 CALLS TO GCG PACKAGE FOR TRANSPORT TIME STEP   2 IN FLOW TIME STEP  61 STRESS PERIOD   2
    15 TOTAL ITERATIONS
=======
 = 0.6699E-02(WHEN MIN. R.F.=1)  AT K=   3, I=   2, J=  30


     1 CALLS TO GCG PACKAGE FOR TRANSPORT TIME STEP   1 IN FLOW TIME STEP  57 STRESS PERIOD   2
    15 TOTAL ITERATIONS

 OUTPUT CONTROL FOR STRESS PERIOD    2   TIME STEP  57
    SAVE HEAD FOR ALL LAYERS
    SAVE BUDGET
>>>>>>> Stashed changes
 
 SOLVING FOR HEAD 
 FLOW MODEL IS TRANSIENT
 FLOW MODEL CONTAINS CONSTANT-HEAD CELLS


 MAXIMUM STEPSIZE DURING WHICH ANY PARTICLE CANNOT MOVE MORE THAN ONE CELL
<<<<<<< Updated upstream
 = 0.1633    (WHEN MIN. R.F.=1)  AT K=   3, I=   2, J=  29

 MAXIMUM STEPSIZE WHICH MEETS STABILITY CRITERION OF THE ADVECTION TERM
 (FOR PURE FINITE-DIFFERENCE OPTION, MIXELM=0) 
 = 0.1132    (WHEN MIN. R.F.=1)  AT K=   3, I=   2, J=  28
=======
 = 0.1870    (WHEN MIN. R.F.=1)  AT K=   3, I=   2, J=  31

 MAXIMUM STEPSIZE WHICH MEETS STABILITY CRITERION OF THE ADVECTION TERM
 (FOR PURE FINITE-DIFFERENCE OPTION, MIXELM=0) 
 = 0.1249    (WHEN MIN. R.F.=1)  AT K=   3, I=   2, J=  30
>>>>>>> Stashed changes


 TOTAL NUMBER OF POINT SOURCES/SINKS PRESENT IN THE FLOW MODEL =   240

 MAXIMUM STEPSIZE WHICH MEETS STABILITY CRITERION OF THE SINK & SOURCE TERM
 = 0.1000E+31(WHEN MIN. R.F.=1)  AT K=   0, I=   0, J=   0

 MAXIMUM STEPSIZE WHICH MEETS STABILITY CRITERION OF THE DISPERSION TERM
<<<<<<< Updated upstream
 = 0.6197E-02(WHEN MIN. R.F.=1)  AT K=   3, I=   2, J=  31
     1 CALLS TO GCG PACKAGE FOR TRANSPORT TIME STEP   3 IN FLOW TIME STEP  61 STRESS PERIOD   2
    15 TOTAL ITERATIONS
=======
 = 0.6699E-02(WHEN MIN. R.F.=1)  AT K=   3, I=   2, J=  30
     1 CALLS TO GCG PACKAGE FOR TRANSPORT TIME STEP   2 IN FLOW TIME STEP  57 STRESS PERIOD   2
    16 TOTAL ITERATIONS
>>>>>>> Stashed changes
 
 SOLVING FOR HEAD 
 FLOW MODEL IS TRANSIENT
 FLOW MODEL CONTAINS CONSTANT-HEAD CELLS


 MAXIMUM STEPSIZE DURING WHICH ANY PARTICLE CANNOT MOVE MORE THAN ONE CELL
<<<<<<< Updated upstream
 = 0.1633    (WHEN MIN. R.F.=1)  AT K=   3, I=   2, J=  29

 MAXIMUM STEPSIZE WHICH MEETS STABILITY CRITERION OF THE ADVECTION TERM
 (FOR PURE FINITE-DIFFERENCE OPTION, MIXELM=0) 
 = 0.1132    (WHEN MIN. R.F.=1)  AT K=   3, I=   2, J=  28
=======
 = 0.1870    (WHEN MIN. R.F.=1)  AT K=   3, I=   2, J=  31

 MAXIMUM STEPSIZE WHICH MEETS STABILITY CRITERION OF THE ADVECTION TERM
 (FOR PURE FINITE-DIFFERENCE OPTION, MIXELM=0) 
 = 0.1249    (WHEN MIN. R.F.=1)  AT K=   3, I=   2, J=  30
>>>>>>> Stashed changes


 TOTAL NUMBER OF POINT SOURCES/SINKS PRESENT IN THE FLOW MODEL =   240

 MAXIMUM STEPSIZE WHICH MEETS STABILITY CRITERION OF THE SINK & SOURCE TERM
 = 0.1000E+31(WHEN MIN. R.F.=1)  AT K=   0, I=   0, J=   0

 MAXIMUM STEPSIZE WHICH MEETS STABILITY CRITERION OF THE DISPERSION TERM
<<<<<<< Updated upstream
 = 0.6197E-02(WHEN MIN. R.F.=1)  AT K=   3, I=   2, J=  31
     1 CALLS TO GCG PACKAGE FOR TRANSPORT TIME STEP   4 IN FLOW TIME STEP  61 STRESS PERIOD   2
=======
 = 0.6699E-02(WHEN MIN. R.F.=1)  AT K=   3, I=   2, J=  30
     1 CALLS TO GCG PACKAGE FOR TRANSPORT TIME STEP   3 IN FLOW TIME STEP  57 STRESS PERIOD   2
>>>>>>> Stashed changes
    15 TOTAL ITERATIONS
 
 SOLVING FOR HEAD 
 FLOW MODEL IS TRANSIENT
 FLOW MODEL CONTAINS CONSTANT-HEAD CELLS


 MAXIMUM STEPSIZE DURING WHICH ANY PARTICLE CANNOT MOVE MORE THAN ONE CELL
<<<<<<< Updated upstream
 = 0.1633    (WHEN MIN. R.F.=1)  AT K=   3, I=   2, J=  29

 MAXIMUM STEPSIZE WHICH MEETS STABILITY CRITERION OF THE ADVECTION TERM
 (FOR PURE FINITE-DIFFERENCE OPTION, MIXELM=0) 
 = 0.1132    (WHEN MIN. R.F.=1)  AT K=   3, I=   2, J=  28
=======
 = 0.1870    (WHEN MIN. R.F.=1)  AT K=   3, I=   2, J=  31

 MAXIMUM STEPSIZE WHICH MEETS STABILITY CRITERION OF THE ADVECTION TERM
 (FOR PURE FINITE-DIFFERENCE OPTION, MIXELM=0) 
 = 0.1249    (WHEN MIN. R.F.=1)  AT K=   3, I=   2, J=  30
>>>>>>> Stashed changes


 TOTAL NUMBER OF POINT SOURCES/SINKS PRESENT IN THE FLOW MODEL =   240

 MAXIMUM STEPSIZE WHICH MEETS STABILITY CRITERION OF THE SINK & SOURCE TERM
 = 0.1000E+31(WHEN MIN. R.F.=1)  AT K=   0, I=   0, J=   0

 MAXIMUM STEPSIZE WHICH MEETS STABILITY CRITERION OF THE DISPERSION TERM
<<<<<<< Updated upstream
 = 0.6197E-02(WHEN MIN. R.F.=1)  AT K=   3, I=   2, J=  31
     1 CALLS TO GCG PACKAGE FOR TRANSPORT TIME STEP   5 IN FLOW TIME STEP  61 STRESS PERIOD   2
    15 TOTAL ITERATIONS
=======
 = 0.6699E-02(WHEN MIN. R.F.=1)  AT K=   3, I=   2, J=  30
     1 CALLS TO GCG PACKAGE FOR TRANSPORT TIME STEP   4 IN FLOW TIME STEP  57 STRESS PERIOD   2
    16 TOTAL ITERATIONS
>>>>>>> Stashed changes
 
 SOLVING FOR HEAD 
 FLOW MODEL IS TRANSIENT
 FLOW MODEL CONTAINS CONSTANT-HEAD CELLS


 MAXIMUM STEPSIZE DURING WHICH ANY PARTICLE CANNOT MOVE MORE THAN ONE CELL
<<<<<<< Updated upstream
 = 0.1633    (WHEN MIN. R.F.=1)  AT K=   3, I=   2, J=  29

 MAXIMUM STEPSIZE WHICH MEETS STABILITY CRITERION OF THE ADVECTION TERM
 (FOR PURE FINITE-DIFFERENCE OPTION, MIXELM=0) 
 = 0.1132    (WHEN MIN. R.F.=1)  AT K=   3, I=   2, J=  28
=======
 = 0.1870    (WHEN MIN. R.F.=1)  AT K=   3, I=   2, J=  31

 MAXIMUM STEPSIZE WHICH MEETS STABILITY CRITERION OF THE ADVECTION TERM
 (FOR PURE FINITE-DIFFERENCE OPTION, MIXELM=0) 
 = 0.1249    (WHEN MIN. R.F.=1)  AT K=   3, I=   2, J=  30
>>>>>>> Stashed changes


 TOTAL NUMBER OF POINT SOURCES/SINKS PRESENT IN THE FLOW MODEL =   240

 MAXIMUM STEPSIZE WHICH MEETS STABILITY CRITERION OF THE SINK & SOURCE TERM
 = 0.1000E+31(WHEN MIN. R.F.=1)  AT K=   0, I=   0, J=   0

 MAXIMUM STEPSIZE WHICH MEETS STABILITY CRITERION OF THE DISPERSION TERM
<<<<<<< Updated upstream
 = 0.6197E-02(WHEN MIN. R.F.=1)  AT K=   3, I=   2, J=  31
     1 CALLS TO GCG PACKAGE FOR TRANSPORT TIME STEP   6 IN FLOW TIME STEP  61 STRESS PERIOD   2
=======
 = 0.6699E-02(WHEN MIN. R.F.=1)  AT K=   3, I=   2, J=  30
     1 CALLS TO GCG PACKAGE FOR TRANSPORT TIME STEP   5 IN FLOW TIME STEP  57 STRESS PERIOD   2
>>>>>>> Stashed changes
    15 TOTAL ITERATIONS
 
 SOLVING FOR HEAD 
 FLOW MODEL IS TRANSIENT
 FLOW MODEL CONTAINS CONSTANT-HEAD CELLS


 MAXIMUM STEPSIZE DURING WHICH ANY PARTICLE CANNOT MOVE MORE THAN ONE CELL
<<<<<<< Updated upstream
 = 0.1633    (WHEN MIN. R.F.=1)  AT K=   3, I=   2, J=  29

 MAXIMUM STEPSIZE WHICH MEETS STABILITY CRITERION OF THE ADVECTION TERM
 (FOR PURE FINITE-DIFFERENCE OPTION, MIXELM=0) 
 = 0.1132    (WHEN MIN. R.F.=1)  AT K=   3, I=   2, J=  28
=======
 = 0.1870    (WHEN MIN. R.F.=1)  AT K=   3, I=   2, J=  31

 MAXIMUM STEPSIZE WHICH MEETS STABILITY CRITERION OF THE ADVECTION TERM
 (FOR PURE FINITE-DIFFERENCE OPTION, MIXELM=0) 
 = 0.1249    (WHEN MIN. R.F.=1)  AT K=   3, I=   2, J=  30
>>>>>>> Stashed changes


 TOTAL NUMBER OF POINT SOURCES/SINKS PRESENT IN THE FLOW MODEL =   240

 MAXIMUM STEPSIZE WHICH MEETS STABILITY CRITERION OF THE SINK & SOURCE TERM
 = 0.1000E+31(WHEN MIN. R.F.=1)  AT K=   0, I=   0, J=   0

 MAXIMUM STEPSIZE WHICH MEETS STABILITY CRITERION OF THE DISPERSION TERM
<<<<<<< Updated upstream
 = 0.6197E-02(WHEN MIN. R.F.=1)  AT K=   3, I=   2, J=  31
     1 CALLS TO GCG PACKAGE FOR TRANSPORT TIME STEP   7 IN FLOW TIME STEP  61 STRESS PERIOD   2
    15 TOTAL ITERATIONS
=======
 = 0.6699E-02(WHEN MIN. R.F.=1)  AT K=   3, I=   2, J=  30
     1 CALLS TO GCG PACKAGE FOR TRANSPORT TIME STEP   6 IN FLOW TIME STEP  57 STRESS PERIOD   2
    16 TOTAL ITERATIONS
>>>>>>> Stashed changes
 
 SOLVING FOR HEAD 
 FLOW MODEL IS TRANSIENT
 FLOW MODEL CONTAINS CONSTANT-HEAD CELLS


 MAXIMUM STEPSIZE DURING WHICH ANY PARTICLE CANNOT MOVE MORE THAN ONE CELL
<<<<<<< Updated upstream
 = 0.1633    (WHEN MIN. R.F.=1)  AT K=   3, I=   2, J=  29

 MAXIMUM STEPSIZE WHICH MEETS STABILITY CRITERION OF THE ADVECTION TERM
 (FOR PURE FINITE-DIFFERENCE OPTION, MIXELM=0) 
 = 0.1132    (WHEN MIN. R.F.=1)  AT K=   3, I=   2, J=  28
=======
 = 0.1870    (WHEN MIN. R.F.=1)  AT K=   3, I=   2, J=  31

 MAXIMUM STEPSIZE WHICH MEETS STABILITY CRITERION OF THE ADVECTION TERM
 (FOR PURE FINITE-DIFFERENCE OPTION, MIXELM=0) 
 = 0.1249    (WHEN MIN. R.F.=1)  AT K=   3, I=   2, J=  30
>>>>>>> Stashed changes


 TOTAL NUMBER OF POINT SOURCES/SINKS PRESENT IN THE FLOW MODEL =   240

 MAXIMUM STEPSIZE WHICH MEETS STABILITY CRITERION OF THE SINK & SOURCE TERM
 = 0.1000E+31(WHEN MIN. R.F.=1)  AT K=   0, I=   0, J=   0

 MAXIMUM STEPSIZE WHICH MEETS STABILITY CRITERION OF THE DISPERSION TERM
<<<<<<< Updated upstream
 = 0.6197E-02(WHEN MIN. R.F.=1)  AT K=   3, I=   2, J=  31
     1 CALLS TO GCG PACKAGE FOR TRANSPORT TIME STEP   8 IN FLOW TIME STEP  61 STRESS PERIOD   2
=======
 = 0.6699E-02(WHEN MIN. R.F.=1)  AT K=   3, I=   2, J=  30
     1 CALLS TO GCG PACKAGE FOR TRANSPORT TIME STEP   7 IN FLOW TIME STEP  57 STRESS PERIOD   2
>>>>>>> Stashed changes
    15 TOTAL ITERATIONS
 
 SOLVING FOR HEAD 
 FLOW MODEL IS TRANSIENT
 FLOW MODEL CONTAINS CONSTANT-HEAD CELLS


 MAXIMUM STEPSIZE DURING WHICH ANY PARTICLE CANNOT MOVE MORE THAN ONE CELL
<<<<<<< Updated upstream
 = 0.1633    (WHEN MIN. R.F.=1)  AT K=   3, I=   2, J=  29

 MAXIMUM STEPSIZE WHICH MEETS STABILITY CRITERION OF THE ADVECTION TERM
 (FOR PURE FINITE-DIFFERENCE OPTION, MIXELM=0) 
 = 0.1132    (WHEN MIN. R.F.=1)  AT K=   3, I=   2, J=  28
=======
 = 0.1870    (WHEN MIN. R.F.=1)  AT K=   3, I=   2, J=  31

 MAXIMUM STEPSIZE WHICH MEETS STABILITY CRITERION OF THE ADVECTION TERM
 (FOR PURE FINITE-DIFFERENCE OPTION, MIXELM=0) 
 = 0.1249    (WHEN MIN. R.F.=1)  AT K=   3, I=   2, J=  30
>>>>>>> Stashed changes


 TOTAL NUMBER OF POINT SOURCES/SINKS PRESENT IN THE FLOW MODEL =   240

 MAXIMUM STEPSIZE WHICH MEETS STABILITY CRITERION OF THE SINK & SOURCE TERM
 = 0.1000E+31(WHEN MIN. R.F.=1)  AT K=   0, I=   0, J=   0

 MAXIMUM STEPSIZE WHICH MEETS STABILITY CRITERION OF THE DISPERSION TERM
<<<<<<< Updated upstream
 = 0.6197E-02(WHEN MIN. R.F.=1)  AT K=   3, I=   2, J=  31
     1 CALLS TO GCG PACKAGE FOR TRANSPORT TIME STEP   9 IN FLOW TIME STEP  61 STRESS PERIOD   2
=======
 = 0.6699E-02(WHEN MIN. R.F.=1)  AT K=   3, I=   2, J=  30
     1 CALLS TO GCG PACKAGE FOR TRANSPORT TIME STEP   8 IN FLOW TIME STEP  57 STRESS PERIOD   2
>>>>>>> Stashed changes
     6 TOTAL ITERATIONS
  MAXIMUM CONCENTRATION CHANGES FOR EACH ITERATION:
  MAX. CHANGE LAYER,ROW,COL MAX. CHANGE LAYER,ROW,COL MAX. CHANGE LAYER,ROW,COL MAX. CHANGE LAYER,ROW,COL MAX. CHANGE LAYER,ROW,COL
 ------------------------------------------------------------------------------------------------------------------------------------
<<<<<<< Updated upstream
   0.1539E-03 ( 14,  3, 51)  0.7408E-05 (  5,  2, 64)  0.1462E-05 (  6,  1, 56)  0.2726E-06 (  4,  3, 29)  0.1400E-06 (  3,  3, 30)
   0.5791E-07 (  4,  3, 28)


                                          ================================================
                                                         FROM TIME =   62.000     TO    63.000    
=======
   0.1506E-03 ( 17,  1, 49)  0.5272E-05 (  5,  2, 61)  0.1089E-05 (  4,  2, 44)  0.3912E-06 (  3,  2, 37)  0.1131E-06 (  4,  3, 27)
   0.4423E-07 (  3,  3, 27)
 UBDSV1 SAVING "         STORAGE" ON UNIT  53 AT TIME STEP 57, STRESS PERIOD   2
 UBDSV2 SAVING "   CONSTANT HEAD" ON UNIT  53 AT TIME STEP 57, STRESS PERIOD   2
 UBDSV1 SAVING "FLOW RIGHT FACE " ON UNIT  53 AT TIME STEP 57, STRESS PERIOD   2
 UBDSV1 SAVING "FLOW FRONT FACE " ON UNIT  53 AT TIME STEP 57, STRESS PERIOD   2
 UBDSV1 SAVING "FLOW LOWER FACE " ON UNIT  53 AT TIME STEP 57, STRESS PERIOD   2
 UBDSV1 SAVING "            DCDT" ON UNIT  53 AT TIME STEP 57, STRESS PERIOD   2

 HEAD WILL BE SAVED ON UNIT   51 AT END OF TIME STEP  57, STRESS PERIOD    2


                                          ================================================
                                                         FROM TIME =   58.000     TO    59.000    
>>>>>>> Stashed changes

 
 SOLVING FOR HEAD 
 FLOW MODEL IS TRANSIENT
 FLOW MODEL CONTAINS CONSTANT-HEAD CELLS


 MAXIMUM STEPSIZE DURING WHICH ANY PARTICLE CANNOT MOVE MORE THAN ONE CELL
<<<<<<< Updated upstream
 = 0.1633    (WHEN MIN. R.F.=1)  AT K=   3, I=   2, J=  29

 MAXIMUM STEPSIZE WHICH MEETS STABILITY CRITERION OF THE ADVECTION TERM
 (FOR PURE FINITE-DIFFERENCE OPTION, MIXELM=0) 
 = 0.1132    (WHEN MIN. R.F.=1)  AT K=   3, I=   2, J=  28
=======
 = 0.1870    (WHEN MIN. R.F.=1)  AT K=   3, I=   2, J=  31

 MAXIMUM STEPSIZE WHICH MEETS STABILITY CRITERION OF THE ADVECTION TERM
 (FOR PURE FINITE-DIFFERENCE OPTION, MIXELM=0) 
 = 0.1249    (WHEN MIN. R.F.=1)  AT K=   3, I=   2, J=  30
>>>>>>> Stashed changes


 TOTAL NUMBER OF POINT SOURCES/SINKS PRESENT IN THE FLOW MODEL =   240

 MAXIMUM STEPSIZE WHICH MEETS STABILITY CRITERION OF THE SINK & SOURCE TERM
 = 0.1000E+31(WHEN MIN. R.F.=1)  AT K=   0, I=   0, J=   0

 MAXIMUM STEPSIZE WHICH MEETS STABILITY CRITERION OF THE DISPERSION TERM
<<<<<<< Updated upstream
 = 0.6197E-02(WHEN MIN. R.F.=1)  AT K=   3, I=   2, J=  31


     1 CALLS TO GCG PACKAGE FOR TRANSPORT TIME STEP   1 IN FLOW TIME STEP  62 STRESS PERIOD   2
    15 TOTAL ITERATIONS

 NO OUTPUT CONTROL FOR STRESS PERIOD    2   TIME STEP  62
=======
 = 0.6699E-02(WHEN MIN. R.F.=1)  AT K=   3, I=   2, J=  30


     1 CALLS TO GCG PACKAGE FOR TRANSPORT TIME STEP   1 IN FLOW TIME STEP  58 STRESS PERIOD   2
    16 TOTAL ITERATIONS

 OUTPUT CONTROL FOR STRESS PERIOD    2   TIME STEP  58
    SAVE HEAD FOR ALL LAYERS
    SAVE BUDGET
>>>>>>> Stashed changes
 
 SOLVING FOR HEAD 
 FLOW MODEL IS TRANSIENT
 FLOW MODEL CONTAINS CONSTANT-HEAD CELLS


 MAXIMUM STEPSIZE DURING WHICH ANY PARTICLE CANNOT MOVE MORE THAN ONE CELL
<<<<<<< Updated upstream
 = 0.1633    (WHEN MIN. R.F.=1)  AT K=   3, I=   2, J=  29

 MAXIMUM STEPSIZE WHICH MEETS STABILITY CRITERION OF THE ADVECTION TERM
 (FOR PURE FINITE-DIFFERENCE OPTION, MIXELM=0) 
 = 0.1132    (WHEN MIN. R.F.=1)  AT K=   3, I=   2, J=  28
=======
 = 0.1870    (WHEN MIN. R.F.=1)  AT K=   3, I=   2, J=  31

 MAXIMUM STEPSIZE WHICH MEETS STABILITY CRITERION OF THE ADVECTION TERM
 (FOR PURE FINITE-DIFFERENCE OPTION, MIXELM=0) 
 = 0.1249    (WHEN MIN. R.F.=1)  AT K=   3, I=   2, J=  30
>>>>>>> Stashed changes


 TOTAL NUMBER OF POINT SOURCES/SINKS PRESENT IN THE FLOW MODEL =   240

 MAXIMUM STEPSIZE WHICH MEETS STABILITY CRITERION OF THE SINK & SOURCE TERM
 = 0.1000E+31(WHEN MIN. R.F.=1)  AT K=   0, I=   0, J=   0

 MAXIMUM STEPSIZE WHICH MEETS STABILITY CRITERION OF THE DISPERSION TERM
<<<<<<< Updated upstream
 = 0.6197E-02(WHEN MIN. R.F.=1)  AT K=   3, I=   2, J=  31
     1 CALLS TO GCG PACKAGE FOR TRANSPORT TIME STEP   2 IN FLOW TIME STEP  62 STRESS PERIOD   2
=======
 = 0.6699E-02(WHEN MIN. R.F.=1)  AT K=   3, I=   2, J=  30
     1 CALLS TO GCG PACKAGE FOR TRANSPORT TIME STEP   2 IN FLOW TIME STEP  58 STRESS PERIOD   2
>>>>>>> Stashed changes
    15 TOTAL ITERATIONS
 
 SOLVING FOR HEAD 
 FLOW MODEL IS TRANSIENT
 FLOW MODEL CONTAINS CONSTANT-HEAD CELLS


 MAXIMUM STEPSIZE DURING WHICH ANY PARTICLE CANNOT MOVE MORE THAN ONE CELL
<<<<<<< Updated upstream
 = 0.1633    (WHEN MIN. R.F.=1)  AT K=   3, I=   2, J=  29

 MAXIMUM STEPSIZE WHICH MEETS STABILITY CRITERION OF THE ADVECTION TERM
 (FOR PURE FINITE-DIFFERENCE OPTION, MIXELM=0) 
 = 0.1132    (WHEN MIN. R.F.=1)  AT K=   3, I=   2, J=  28
=======
 = 0.1870    (WHEN MIN. R.F.=1)  AT K=   3, I=   2, J=  31

 MAXIMUM STEPSIZE WHICH MEETS STABILITY CRITERION OF THE ADVECTION TERM
 (FOR PURE FINITE-DIFFERENCE OPTION, MIXELM=0) 
 = 0.1249    (WHEN MIN. R.F.=1)  AT K=   3, I=   2, J=  30
>>>>>>> Stashed changes


 TOTAL NUMBER OF POINT SOURCES/SINKS PRESENT IN THE FLOW MODEL =   240

 MAXIMUM STEPSIZE WHICH MEETS STABILITY CRITERION OF THE SINK & SOURCE TERM
 = 0.1000E+31(WHEN MIN. R.F.=1)  AT K=   0, I=   0, J=   0

 MAXIMUM STEPSIZE WHICH MEETS STABILITY CRITERION OF THE DISPERSION TERM
<<<<<<< Updated upstream
 = 0.6197E-02(WHEN MIN. R.F.=1)  AT K=   3, I=   2, J=  31
     1 CALLS TO GCG PACKAGE FOR TRANSPORT TIME STEP   3 IN FLOW TIME STEP  62 STRESS PERIOD   2
    15 TOTAL ITERATIONS
=======
 = 0.6699E-02(WHEN MIN. R.F.=1)  AT K=   3, I=   2, J=  30
     1 CALLS TO GCG PACKAGE FOR TRANSPORT TIME STEP   3 IN FLOW TIME STEP  58 STRESS PERIOD   2
    16 TOTAL ITERATIONS
>>>>>>> Stashed changes
 
 SOLVING FOR HEAD 
 FLOW MODEL IS TRANSIENT
 FLOW MODEL CONTAINS CONSTANT-HEAD CELLS


 MAXIMUM STEPSIZE DURING WHICH ANY PARTICLE CANNOT MOVE MORE THAN ONE CELL
<<<<<<< Updated upstream
 = 0.1633    (WHEN MIN. R.F.=1)  AT K=   3, I=   2, J=  29

 MAXIMUM STEPSIZE WHICH MEETS STABILITY CRITERION OF THE ADVECTION TERM
 (FOR PURE FINITE-DIFFERENCE OPTION, MIXELM=0) 
 = 0.1132    (WHEN MIN. R.F.=1)  AT K=   3, I=   2, J=  28
=======
 = 0.1870    (WHEN MIN. R.F.=1)  AT K=   3, I=   2, J=  31

 MAXIMUM STEPSIZE WHICH MEETS STABILITY CRITERION OF THE ADVECTION TERM
 (FOR PURE FINITE-DIFFERENCE OPTION, MIXELM=0) 
 = 0.1249    (WHEN MIN. R.F.=1)  AT K=   3, I=   2, J=  30
>>>>>>> Stashed changes


 TOTAL NUMBER OF POINT SOURCES/SINKS PRESENT IN THE FLOW MODEL =   240

 MAXIMUM STEPSIZE WHICH MEETS STABILITY CRITERION OF THE SINK & SOURCE TERM
 = 0.1000E+31(WHEN MIN. R.F.=1)  AT K=   0, I=   0, J=   0

 MAXIMUM STEPSIZE WHICH MEETS STABILITY CRITERION OF THE DISPERSION TERM
<<<<<<< Updated upstream
 = 0.6197E-02(WHEN MIN. R.F.=1)  AT K=   3, I=   2, J=  31
     1 CALLS TO GCG PACKAGE FOR TRANSPORT TIME STEP   4 IN FLOW TIME STEP  62 STRESS PERIOD   2
=======
 = 0.6699E-02(WHEN MIN. R.F.=1)  AT K=   3, I=   2, J=  30
     1 CALLS TO GCG PACKAGE FOR TRANSPORT TIME STEP   4 IN FLOW TIME STEP  58 STRESS PERIOD   2
>>>>>>> Stashed changes
    15 TOTAL ITERATIONS
 
 SOLVING FOR HEAD 
 FLOW MODEL IS TRANSIENT
 FLOW MODEL CONTAINS CONSTANT-HEAD CELLS


 MAXIMUM STEPSIZE DURING WHICH ANY PARTICLE CANNOT MOVE MORE THAN ONE CELL
<<<<<<< Updated upstream
 = 0.1633    (WHEN MIN. R.F.=1)  AT K=   3, I=   2, J=  29

 MAXIMUM STEPSIZE WHICH MEETS STABILITY CRITERION OF THE ADVECTION TERM
 (FOR PURE FINITE-DIFFERENCE OPTION, MIXELM=0) 
 = 0.1132    (WHEN MIN. R.F.=1)  AT K=   3, I=   2, J=  28
=======
 = 0.1870    (WHEN MIN. R.F.=1)  AT K=   3, I=   2, J=  31

 MAXIMUM STEPSIZE WHICH MEETS STABILITY CRITERION OF THE ADVECTION TERM
 (FOR PURE FINITE-DIFFERENCE OPTION, MIXELM=0) 
 = 0.1249    (WHEN MIN. R.F.=1)  AT K=   3, I=   2, J=  30
>>>>>>> Stashed changes


 TOTAL NUMBER OF POINT SOURCES/SINKS PRESENT IN THE FLOW MODEL =   240

 MAXIMUM STEPSIZE WHICH MEETS STABILITY CRITERION OF THE SINK & SOURCE TERM
 = 0.1000E+31(WHEN MIN. R.F.=1)  AT K=   0, I=   0, J=   0

 MAXIMUM STEPSIZE WHICH MEETS STABILITY CRITERION OF THE DISPERSION TERM
<<<<<<< Updated upstream
 = 0.6197E-02(WHEN MIN. R.F.=1)  AT K=   3, I=   2, J=  31
     1 CALLS TO GCG PACKAGE FOR TRANSPORT TIME STEP   5 IN FLOW TIME STEP  62 STRESS PERIOD   2
    15 TOTAL ITERATIONS
=======
 = 0.6699E-02(WHEN MIN. R.F.=1)  AT K=   3, I=   2, J=  30
     1 CALLS TO GCG PACKAGE FOR TRANSPORT TIME STEP   5 IN FLOW TIME STEP  58 STRESS PERIOD   2
    16 TOTAL ITERATIONS
>>>>>>> Stashed changes
 
 SOLVING FOR HEAD 
 FLOW MODEL IS TRANSIENT
 FLOW MODEL CONTAINS CONSTANT-HEAD CELLS


 MAXIMUM STEPSIZE DURING WHICH ANY PARTICLE CANNOT MOVE MORE THAN ONE CELL
<<<<<<< Updated upstream
 = 0.1633    (WHEN MIN. R.F.=1)  AT K=   3, I=   2, J=  29

 MAXIMUM STEPSIZE WHICH MEETS STABILITY CRITERION OF THE ADVECTION TERM
 (FOR PURE FINITE-DIFFERENCE OPTION, MIXELM=0) 
 = 0.1132    (WHEN MIN. R.F.=1)  AT K=   3, I=   2, J=  28
=======
 = 0.1870    (WHEN MIN. R.F.=1)  AT K=   3, I=   2, J=  31

 MAXIMUM STEPSIZE WHICH MEETS STABILITY CRITERION OF THE ADVECTION TERM
 (FOR PURE FINITE-DIFFERENCE OPTION, MIXELM=0) 
 = 0.1249    (WHEN MIN. R.F.=1)  AT K=   3, I=   2, J=  30
>>>>>>> Stashed changes


 TOTAL NUMBER OF POINT SOURCES/SINKS PRESENT IN THE FLOW MODEL =   240

 MAXIMUM STEPSIZE WHICH MEETS STABILITY CRITERION OF THE SINK & SOURCE TERM
 = 0.1000E+31(WHEN MIN. R.F.=1)  AT K=   0, I=   0, J=   0

 MAXIMUM STEPSIZE WHICH MEETS STABILITY CRITERION OF THE DISPERSION TERM
<<<<<<< Updated upstream
 = 0.6197E-02(WHEN MIN. R.F.=1)  AT K=   3, I=   2, J=  31
     1 CALLS TO GCG PACKAGE FOR TRANSPORT TIME STEP   6 IN FLOW TIME STEP  62 STRESS PERIOD   2
=======
 = 0.6699E-02(WHEN MIN. R.F.=1)  AT K=   3, I=   2, J=  30
     1 CALLS TO GCG PACKAGE FOR TRANSPORT TIME STEP   6 IN FLOW TIME STEP  58 STRESS PERIOD   2
>>>>>>> Stashed changes
    15 TOTAL ITERATIONS
 
 SOLVING FOR HEAD 
 FLOW MODEL IS TRANSIENT
 FLOW MODEL CONTAINS CONSTANT-HEAD CELLS


 MAXIMUM STEPSIZE DURING WHICH ANY PARTICLE CANNOT MOVE MORE THAN ONE CELL
<<<<<<< Updated upstream
 = 0.1633    (WHEN MIN. R.F.=1)  AT K=   3, I=   2, J=  29

 MAXIMUM STEPSIZE WHICH MEETS STABILITY CRITERION OF THE ADVECTION TERM
 (FOR PURE FINITE-DIFFERENCE OPTION, MIXELM=0) 
 = 0.1132    (WHEN MIN. R.F.=1)  AT K=   3, I=   2, J=  28
=======
 = 0.1870    (WHEN MIN. R.F.=1)  AT K=   3, I=   2, J=  31

 MAXIMUM STEPSIZE WHICH MEETS STABILITY CRITERION OF THE ADVECTION TERM
 (FOR PURE FINITE-DIFFERENCE OPTION, MIXELM=0) 
 = 0.1249    (WHEN MIN. R.F.=1)  AT K=   3, I=   2, J=  30
>>>>>>> Stashed changes


 TOTAL NUMBER OF POINT SOURCES/SINKS PRESENT IN THE FLOW MODEL =   240

 MAXIMUM STEPSIZE WHICH MEETS STABILITY CRITERION OF THE SINK & SOURCE TERM
 = 0.1000E+31(WHEN MIN. R.F.=1)  AT K=   0, I=   0, J=   0

 MAXIMUM STEPSIZE WHICH MEETS STABILITY CRITERION OF THE DISPERSION TERM
<<<<<<< Updated upstream
 = 0.6197E-02(WHEN MIN. R.F.=1)  AT K=   3, I=   2, J=  31
     1 CALLS TO GCG PACKAGE FOR TRANSPORT TIME STEP   7 IN FLOW TIME STEP  62 STRESS PERIOD   2
=======
 = 0.6699E-02(WHEN MIN. R.F.=1)  AT K=   3, I=   2, J=  30
     1 CALLS TO GCG PACKAGE FOR TRANSPORT TIME STEP   7 IN FLOW TIME STEP  58 STRESS PERIOD   2
>>>>>>> Stashed changes
    15 TOTAL ITERATIONS
 
 SOLVING FOR HEAD 
 FLOW MODEL IS TRANSIENT
 FLOW MODEL CONTAINS CONSTANT-HEAD CELLS


 MAXIMUM STEPSIZE DURING WHICH ANY PARTICLE CANNOT MOVE MORE THAN ONE CELL
<<<<<<< Updated upstream
 = 0.1633    (WHEN MIN. R.F.=1)  AT K=   3, I=   2, J=  29

 MAXIMUM STEPSIZE WHICH MEETS STABILITY CRITERION OF THE ADVECTION TERM
 (FOR PURE FINITE-DIFFERENCE OPTION, MIXELM=0) 
 = 0.1132    (WHEN MIN. R.F.=1)  AT K=   3, I=   2, J=  28
=======
 = 0.1870    (WHEN MIN. R.F.=1)  AT K=   3, I=   2, J=  31

 MAXIMUM STEPSIZE WHICH MEETS STABILITY CRITERION OF THE ADVECTION TERM
 (FOR PURE FINITE-DIFFERENCE OPTION, MIXELM=0) 
 = 0.1249    (WHEN MIN. R.F.=1)  AT K=   3, I=   2, J=  30
>>>>>>> Stashed changes


 TOTAL NUMBER OF POINT SOURCES/SINKS PRESENT IN THE FLOW MODEL =   240

 MAXIMUM STEPSIZE WHICH MEETS STABILITY CRITERION OF THE SINK & SOURCE TERM
 = 0.1000E+31(WHEN MIN. R.F.=1)  AT K=   0, I=   0, J=   0

 MAXIMUM STEPSIZE WHICH MEETS STABILITY CRITERION OF THE DISPERSION TERM
<<<<<<< Updated upstream
 = 0.6197E-02(WHEN MIN. R.F.=1)  AT K=   3, I=   2, J=  31
     1 CALLS TO GCG PACKAGE FOR TRANSPORT TIME STEP   8 IN FLOW TIME STEP  62 STRESS PERIOD   2
    15 TOTAL ITERATIONS
=======
 = 0.6699E-02(WHEN MIN. R.F.=1)  AT K=   3, I=   2, J=  30
     1 CALLS TO GCG PACKAGE FOR TRANSPORT TIME STEP   8 IN FLOW TIME STEP  58 STRESS PERIOD   2
     6 TOTAL ITERATIONS
  MAXIMUM CONCENTRATION CHANGES FOR EACH ITERATION:
  MAX. CHANGE LAYER,ROW,COL MAX. CHANGE LAYER,ROW,COL MAX. CHANGE LAYER,ROW,COL MAX. CHANGE LAYER,ROW,COL MAX. CHANGE LAYER,ROW,COL
 ------------------------------------------------------------------------------------------------------------------------------------
   0.1522E-03 ( 17,  1, 50)  0.5102E-05 (  5,  2, 61)  0.1040E-05 (  4,  2, 44)  0.3700E-06 (  3,  2, 37)  0.1088E-06 (  4,  3, 27)
   0.4400E-07 (  3,  2, 31)
 UBDSV1 SAVING "         STORAGE" ON UNIT  53 AT TIME STEP 58, STRESS PERIOD   2
 UBDSV2 SAVING "   CONSTANT HEAD" ON UNIT  53 AT TIME STEP 58, STRESS PERIOD   2
 UBDSV1 SAVING "FLOW RIGHT FACE " ON UNIT  53 AT TIME STEP 58, STRESS PERIOD   2
 UBDSV1 SAVING "FLOW FRONT FACE " ON UNIT  53 AT TIME STEP 58, STRESS PERIOD   2
 UBDSV1 SAVING "FLOW LOWER FACE " ON UNIT  53 AT TIME STEP 58, STRESS PERIOD   2
 UBDSV1 SAVING "            DCDT" ON UNIT  53 AT TIME STEP 58, STRESS PERIOD   2

 HEAD WILL BE SAVED ON UNIT   51 AT END OF TIME STEP  58, STRESS PERIOD    2


                                          ================================================
                                                         FROM TIME =   59.000     TO    60.000    

>>>>>>> Stashed changes
 
 SOLVING FOR HEAD 
 FLOW MODEL IS TRANSIENT
 FLOW MODEL CONTAINS CONSTANT-HEAD CELLS


 MAXIMUM STEPSIZE DURING WHICH ANY PARTICLE CANNOT MOVE MORE THAN ONE CELL
<<<<<<< Updated upstream
 = 0.1633    (WHEN MIN. R.F.=1)  AT K=   3, I=   2, J=  29

 MAXIMUM STEPSIZE WHICH MEETS STABILITY CRITERION OF THE ADVECTION TERM
 (FOR PURE FINITE-DIFFERENCE OPTION, MIXELM=0) 
 = 0.1132    (WHEN MIN. R.F.=1)  AT K=   3, I=   2, J=  28
=======
 = 0.1870    (WHEN MIN. R.F.=1)  AT K=   3, I=   2, J=  31

 MAXIMUM STEPSIZE WHICH MEETS STABILITY CRITERION OF THE ADVECTION TERM
 (FOR PURE FINITE-DIFFERENCE OPTION, MIXELM=0) 
 = 0.1249    (WHEN MIN. R.F.=1)  AT K=   3, I=   2, J=  30
>>>>>>> Stashed changes


 TOTAL NUMBER OF POINT SOURCES/SINKS PRESENT IN THE FLOW MODEL =   240

 MAXIMUM STEPSIZE WHICH MEETS STABILITY CRITERION OF THE SINK & SOURCE TERM
 = 0.1000E+31(WHEN MIN. R.F.=1)  AT K=   0, I=   0, J=   0

 MAXIMUM STEPSIZE WHICH MEETS STABILITY CRITERION OF THE DISPERSION TERM
<<<<<<< Updated upstream
 = 0.6197E-02(WHEN MIN. R.F.=1)  AT K=   3, I=   2, J=  31
     1 CALLS TO GCG PACKAGE FOR TRANSPORT TIME STEP   9 IN FLOW TIME STEP  62 STRESS PERIOD   2
     6 TOTAL ITERATIONS
  MAXIMUM CONCENTRATION CHANGES FOR EACH ITERATION:
  MAX. CHANGE LAYER,ROW,COL MAX. CHANGE LAYER,ROW,COL MAX. CHANGE LAYER,ROW,COL MAX. CHANGE LAYER,ROW,COL MAX. CHANGE LAYER,ROW,COL
 ------------------------------------------------------------------------------------------------------------------------------------
   0.1528E-03 ( 13,  3, 54)  0.7195E-05 (  5,  2, 64)  0.1414E-05 (  6,  1, 56)  0.2538E-06 (  4,  3, 29)  0.1310E-06 (  3,  3, 30)
   0.5451E-07 (  4,  3, 28)


                                          ================================================
                                                         FROM TIME =   63.000     TO    64.000    

=======
 = 0.6699E-02(WHEN MIN. R.F.=1)  AT K=   3, I=   2, J=  30


     1 CALLS TO GCG PACKAGE FOR TRANSPORT TIME STEP   1 IN FLOW TIME STEP  59 STRESS PERIOD   2
    16 TOTAL ITERATIONS

 OUTPUT CONTROL FOR STRESS PERIOD    2   TIME STEP  59
    SAVE HEAD FOR ALL LAYERS
    SAVE BUDGET
>>>>>>> Stashed changes
 
 SOLVING FOR HEAD 
 FLOW MODEL IS TRANSIENT
 FLOW MODEL CONTAINS CONSTANT-HEAD CELLS


 MAXIMUM STEPSIZE DURING WHICH ANY PARTICLE CANNOT MOVE MORE THAN ONE CELL
<<<<<<< Updated upstream
 = 0.1633    (WHEN MIN. R.F.=1)  AT K=   3, I=   2, J=  29

 MAXIMUM STEPSIZE WHICH MEETS STABILITY CRITERION OF THE ADVECTION TERM
 (FOR PURE FINITE-DIFFERENCE OPTION, MIXELM=0) 
 = 0.1132    (WHEN MIN. R.F.=1)  AT K=   3, I=   2, J=  28
=======
 = 0.1870    (WHEN MIN. R.F.=1)  AT K=   3, I=   2, J=  31

 MAXIMUM STEPSIZE WHICH MEETS STABILITY CRITERION OF THE ADVECTION TERM
 (FOR PURE FINITE-DIFFERENCE OPTION, MIXELM=0) 
 = 0.1249    (WHEN MIN. R.F.=1)  AT K=   3, I=   2, J=  30
>>>>>>> Stashed changes


 TOTAL NUMBER OF POINT SOURCES/SINKS PRESENT IN THE FLOW MODEL =   240

 MAXIMUM STEPSIZE WHICH MEETS STABILITY CRITERION OF THE SINK & SOURCE TERM
 = 0.1000E+31(WHEN MIN. R.F.=1)  AT K=   0, I=   0, J=   0

 MAXIMUM STEPSIZE WHICH MEETS STABILITY CRITERION OF THE DISPERSION TERM
<<<<<<< Updated upstream
 = 0.6197E-02(WHEN MIN. R.F.=1)  AT K=   3, I=   2, J=  31


     1 CALLS TO GCG PACKAGE FOR TRANSPORT TIME STEP   1 IN FLOW TIME STEP  63 STRESS PERIOD   2
    15 TOTAL ITERATIONS

 NO OUTPUT CONTROL FOR STRESS PERIOD    2   TIME STEP  63
=======
 = 0.6699E-02(WHEN MIN. R.F.=1)  AT K=   3, I=   2, J=  30
     1 CALLS TO GCG PACKAGE FOR TRANSPORT TIME STEP   2 IN FLOW TIME STEP  59 STRESS PERIOD   2
    15 TOTAL ITERATIONS
>>>>>>> Stashed changes
 
 SOLVING FOR HEAD 
 FLOW MODEL IS TRANSIENT
 FLOW MODEL CONTAINS CONSTANT-HEAD CELLS


 MAXIMUM STEPSIZE DURING WHICH ANY PARTICLE CANNOT MOVE MORE THAN ONE CELL
<<<<<<< Updated upstream
 = 0.1633    (WHEN MIN. R.F.=1)  AT K=   3, I=   2, J=  29

 MAXIMUM STEPSIZE WHICH MEETS STABILITY CRITERION OF THE ADVECTION TERM
 (FOR PURE FINITE-DIFFERENCE OPTION, MIXELM=0) 
 = 0.1132    (WHEN MIN. R.F.=1)  AT K=   3, I=   2, J=  28
=======
 = 0.1870    (WHEN MIN. R.F.=1)  AT K=   3, I=   2, J=  31

 MAXIMUM STEPSIZE WHICH MEETS STABILITY CRITERION OF THE ADVECTION TERM
 (FOR PURE FINITE-DIFFERENCE OPTION, MIXELM=0) 
 = 0.1249    (WHEN MIN. R.F.=1)  AT K=   3, I=   2, J=  30
>>>>>>> Stashed changes


 TOTAL NUMBER OF POINT SOURCES/SINKS PRESENT IN THE FLOW MODEL =   240

 MAXIMUM STEPSIZE WHICH MEETS STABILITY CRITERION OF THE SINK & SOURCE TERM
 = 0.1000E+31(WHEN MIN. R.F.=1)  AT K=   0, I=   0, J=   0

 MAXIMUM STEPSIZE WHICH MEETS STABILITY CRITERION OF THE DISPERSION TERM
<<<<<<< Updated upstream
 = 0.6197E-02(WHEN MIN. R.F.=1)  AT K=   3, I=   2, J=  31
     1 CALLS TO GCG PACKAGE FOR TRANSPORT TIME STEP   2 IN FLOW TIME STEP  63 STRESS PERIOD   2
    15 TOTAL ITERATIONS
=======
 = 0.6699E-02(WHEN MIN. R.F.=1)  AT K=   3, I=   2, J=  30
     1 CALLS TO GCG PACKAGE FOR TRANSPORT TIME STEP   3 IN FLOW TIME STEP  59 STRESS PERIOD   2
    16 TOTAL ITERATIONS
>>>>>>> Stashed changes
 
 SOLVING FOR HEAD 
 FLOW MODEL IS TRANSIENT
 FLOW MODEL CONTAINS CONSTANT-HEAD CELLS


 MAXIMUM STEPSIZE DURING WHICH ANY PARTICLE CANNOT MOVE MORE THAN ONE CELL
<<<<<<< Updated upstream
 = 0.1633    (WHEN MIN. R.F.=1)  AT K=   3, I=   2, J=  29

 MAXIMUM STEPSIZE WHICH MEETS STABILITY CRITERION OF THE ADVECTION TERM
 (FOR PURE FINITE-DIFFERENCE OPTION, MIXELM=0) 
 = 0.1132    (WHEN MIN. R.F.=1)  AT K=   3, I=   2, J=  28
=======
 = 0.1870    (WHEN MIN. R.F.=1)  AT K=   3, I=   2, J=  31

 MAXIMUM STEPSIZE WHICH MEETS STABILITY CRITERION OF THE ADVECTION TERM
 (FOR PURE FINITE-DIFFERENCE OPTION, MIXELM=0) 
 = 0.1249    (WHEN MIN. R.F.=1)  AT K=   3, I=   2, J=  30
>>>>>>> Stashed changes


 TOTAL NUMBER OF POINT SOURCES/SINKS PRESENT IN THE FLOW MODEL =   240

 MAXIMUM STEPSIZE WHICH MEETS STABILITY CRITERION OF THE SINK & SOURCE TERM
 = 0.1000E+31(WHEN MIN. R.F.=1)  AT K=   0, I=   0, J=   0

 MAXIMUM STEPSIZE WHICH MEETS STABILITY CRITERION OF THE DISPERSION TERM
<<<<<<< Updated upstream
 = 0.6197E-02(WHEN MIN. R.F.=1)  AT K=   3, I=   2, J=  31
     1 CALLS TO GCG PACKAGE FOR TRANSPORT TIME STEP   3 IN FLOW TIME STEP  63 STRESS PERIOD   2
    14 TOTAL ITERATIONS
=======
 = 0.6699E-02(WHEN MIN. R.F.=1)  AT K=   3, I=   2, J=  30
     1 CALLS TO GCG PACKAGE FOR TRANSPORT TIME STEP   4 IN FLOW TIME STEP  59 STRESS PERIOD   2
    15 TOTAL ITERATIONS
>>>>>>> Stashed changes
 
 SOLVING FOR HEAD 
 FLOW MODEL IS TRANSIENT
 FLOW MODEL CONTAINS CONSTANT-HEAD CELLS


 MAXIMUM STEPSIZE DURING WHICH ANY PARTICLE CANNOT MOVE MORE THAN ONE CELL
<<<<<<< Updated upstream
 = 0.1633    (WHEN MIN. R.F.=1)  AT K=   3, I=   2, J=  29

 MAXIMUM STEPSIZE WHICH MEETS STABILITY CRITERION OF THE ADVECTION TERM
 (FOR PURE FINITE-DIFFERENCE OPTION, MIXELM=0) 
 = 0.1132    (WHEN MIN. R.F.=1)  AT K=   3, I=   2, J=  28
=======
 = 0.1870    (WHEN MIN. R.F.=1)  AT K=   3, I=   2, J=  31

 MAXIMUM STEPSIZE WHICH MEETS STABILITY CRITERION OF THE ADVECTION TERM
 (FOR PURE FINITE-DIFFERENCE OPTION, MIXELM=0) 
 = 0.1249    (WHEN MIN. R.F.=1)  AT K=   3, I=   2, J=  30
>>>>>>> Stashed changes


 TOTAL NUMBER OF POINT SOURCES/SINKS PRESENT IN THE FLOW MODEL =   240

 MAXIMUM STEPSIZE WHICH MEETS STABILITY CRITERION OF THE SINK & SOURCE TERM
 = 0.1000E+31(WHEN MIN. R.F.=1)  AT K=   0, I=   0, J=   0

 MAXIMUM STEPSIZE WHICH MEETS STABILITY CRITERION OF THE DISPERSION TERM
<<<<<<< Updated upstream
 = 0.6196E-02(WHEN MIN. R.F.=1)  AT K=   3, I=   2, J=  31
     1 CALLS TO GCG PACKAGE FOR TRANSPORT TIME STEP   4 IN FLOW TIME STEP  63 STRESS PERIOD   2
    14 TOTAL ITERATIONS
=======
 = 0.6699E-02(WHEN MIN. R.F.=1)  AT K=   3, I=   2, J=  30
     1 CALLS TO GCG PACKAGE FOR TRANSPORT TIME STEP   5 IN FLOW TIME STEP  59 STRESS PERIOD   2
    16 TOTAL ITERATIONS
>>>>>>> Stashed changes
 
 SOLVING FOR HEAD 
 FLOW MODEL IS TRANSIENT
 FLOW MODEL CONTAINS CONSTANT-HEAD CELLS


 MAXIMUM STEPSIZE DURING WHICH ANY PARTICLE CANNOT MOVE MORE THAN ONE CELL
<<<<<<< Updated upstream
 = 0.1633    (WHEN MIN. R.F.=1)  AT K=   3, I=   2, J=  29

 MAXIMUM STEPSIZE WHICH MEETS STABILITY CRITERION OF THE ADVECTION TERM
 (FOR PURE FINITE-DIFFERENCE OPTION, MIXELM=0) 
 = 0.1132    (WHEN MIN. R.F.=1)  AT K=   3, I=   2, J=  28
=======
 = 0.1870    (WHEN MIN. R.F.=1)  AT K=   3, I=   2, J=  31

 MAXIMUM STEPSIZE WHICH MEETS STABILITY CRITERION OF THE ADVECTION TERM
 (FOR PURE FINITE-DIFFERENCE OPTION, MIXELM=0) 
 = 0.1249    (WHEN MIN. R.F.=1)  AT K=   3, I=   2, J=  30
>>>>>>> Stashed changes


 TOTAL NUMBER OF POINT SOURCES/SINKS PRESENT IN THE FLOW MODEL =   240

 MAXIMUM STEPSIZE WHICH MEETS STABILITY CRITERION OF THE SINK & SOURCE TERM
 = 0.1000E+31(WHEN MIN. R.F.=1)  AT K=   0, I=   0, J=   0

 MAXIMUM STEPSIZE WHICH MEETS STABILITY CRITERION OF THE DISPERSION TERM
<<<<<<< Updated upstream
 = 0.6196E-02(WHEN MIN. R.F.=1)  AT K=   3, I=   2, J=  31
     1 CALLS TO GCG PACKAGE FOR TRANSPORT TIME STEP   5 IN FLOW TIME STEP  63 STRESS PERIOD   2
    14 TOTAL ITERATIONS
=======
 = 0.6699E-02(WHEN MIN. R.F.=1)  AT K=   3, I=   2, J=  30
     1 CALLS TO GCG PACKAGE FOR TRANSPORT TIME STEP   6 IN FLOW TIME STEP  59 STRESS PERIOD   2
    15 TOTAL ITERATIONS
>>>>>>> Stashed changes
 
 SOLVING FOR HEAD 
 FLOW MODEL IS TRANSIENT
 FLOW MODEL CONTAINS CONSTANT-HEAD CELLS


 MAXIMUM STEPSIZE DURING WHICH ANY PARTICLE CANNOT MOVE MORE THAN ONE CELL
<<<<<<< Updated upstream
 = 0.1633    (WHEN MIN. R.F.=1)  AT K=   3, I=   2, J=  29

 MAXIMUM STEPSIZE WHICH MEETS STABILITY CRITERION OF THE ADVECTION TERM
 (FOR PURE FINITE-DIFFERENCE OPTION, MIXELM=0) 
 = 0.1132    (WHEN MIN. R.F.=1)  AT K=   3, I=   2, J=  28
=======
 = 0.1870    (WHEN MIN. R.F.=1)  AT K=   3, I=   2, J=  31

 MAXIMUM STEPSIZE WHICH MEETS STABILITY CRITERION OF THE ADVECTION TERM
 (FOR PURE FINITE-DIFFERENCE OPTION, MIXELM=0) 
 = 0.1249    (WHEN MIN. R.F.=1)  AT K=   3, I=   2, J=  30
>>>>>>> Stashed changes


 TOTAL NUMBER OF POINT SOURCES/SINKS PRESENT IN THE FLOW MODEL =   240

 MAXIMUM STEPSIZE WHICH MEETS STABILITY CRITERION OF THE SINK & SOURCE TERM
 = 0.1000E+31(WHEN MIN. R.F.=1)  AT K=   0, I=   0, J=   0

 MAXIMUM STEPSIZE WHICH MEETS STABILITY CRITERION OF THE DISPERSION TERM
<<<<<<< Updated upstream
 = 0.6196E-02(WHEN MIN. R.F.=1)  AT K=   3, I=   2, J=  31
     1 CALLS TO GCG PACKAGE FOR TRANSPORT TIME STEP   6 IN FLOW TIME STEP  63 STRESS PERIOD   2
    14 TOTAL ITERATIONS
=======
 = 0.6699E-02(WHEN MIN. R.F.=1)  AT K=   3, I=   2, J=  30
     1 CALLS TO GCG PACKAGE FOR TRANSPORT TIME STEP   7 IN FLOW TIME STEP  59 STRESS PERIOD   2
    16 TOTAL ITERATIONS
>>>>>>> Stashed changes
 
 SOLVING FOR HEAD 
 FLOW MODEL IS TRANSIENT
 FLOW MODEL CONTAINS CONSTANT-HEAD CELLS


 MAXIMUM STEPSIZE DURING WHICH ANY PARTICLE CANNOT MOVE MORE THAN ONE CELL
<<<<<<< Updated upstream
 = 0.1633    (WHEN MIN. R.F.=1)  AT K=   3, I=   2, J=  29

 MAXIMUM STEPSIZE WHICH MEETS STABILITY CRITERION OF THE ADVECTION TERM
 (FOR PURE FINITE-DIFFERENCE OPTION, MIXELM=0) 
 = 0.1132    (WHEN MIN. R.F.=1)  AT K=   3, I=   2, J=  28
=======
 = 0.1870    (WHEN MIN. R.F.=1)  AT K=   3, I=   2, J=  31

 MAXIMUM STEPSIZE WHICH MEETS STABILITY CRITERION OF THE ADVECTION TERM
 (FOR PURE FINITE-DIFFERENCE OPTION, MIXELM=0) 
 = 0.1249    (WHEN MIN. R.F.=1)  AT K=   3, I=   2, J=  30
>>>>>>> Stashed changes


 TOTAL NUMBER OF POINT SOURCES/SINKS PRESENT IN THE FLOW MODEL =   240

 MAXIMUM STEPSIZE WHICH MEETS STABILITY CRITERION OF THE SINK & SOURCE TERM
 = 0.1000E+31(WHEN MIN. R.F.=1)  AT K=   0, I=   0, J=   0

 MAXIMUM STEPSIZE WHICH MEETS STABILITY CRITERION OF THE DISPERSION TERM
<<<<<<< Updated upstream
 = 0.6196E-02(WHEN MIN. R.F.=1)  AT K=   3, I=   2, J=  31
     1 CALLS TO GCG PACKAGE FOR TRANSPORT TIME STEP   7 IN FLOW TIME STEP  63 STRESS PERIOD   2
    14 TOTAL ITERATIONS
=======
 = 0.6699E-02(WHEN MIN. R.F.=1)  AT K=   3, I=   2, J=  30
     1 CALLS TO GCG PACKAGE FOR TRANSPORT TIME STEP   8 IN FLOW TIME STEP  59 STRESS PERIOD   2
     6 TOTAL ITERATIONS
  MAXIMUM CONCENTRATION CHANGES FOR EACH ITERATION:
  MAX. CHANGE LAYER,ROW,COL MAX. CHANGE LAYER,ROW,COL MAX. CHANGE LAYER,ROW,COL MAX. CHANGE LAYER,ROW,COL MAX. CHANGE LAYER,ROW,COL
 ------------------------------------------------------------------------------------------------------------------------------------
   0.1531E-03 ( 17,  1, 50)  0.4938E-05 (  5,  2, 61)  0.9877E-06 (  4,  2, 44)  0.3471E-06 (  3,  2, 37)  0.1118E-06 (  4,  1, 31)
   0.4390E-07 (  3,  1, 31)
 UBDSV1 SAVING "         STORAGE" ON UNIT  53 AT TIME STEP 59, STRESS PERIOD   2
 UBDSV2 SAVING "   CONSTANT HEAD" ON UNIT  53 AT TIME STEP 59, STRESS PERIOD   2
 UBDSV1 SAVING "FLOW RIGHT FACE " ON UNIT  53 AT TIME STEP 59, STRESS PERIOD   2
 UBDSV1 SAVING "FLOW FRONT FACE " ON UNIT  53 AT TIME STEP 59, STRESS PERIOD   2
 UBDSV1 SAVING "FLOW LOWER FACE " ON UNIT  53 AT TIME STEP 59, STRESS PERIOD   2
 UBDSV1 SAVING "            DCDT" ON UNIT  53 AT TIME STEP 59, STRESS PERIOD   2

 HEAD WILL BE SAVED ON UNIT   51 AT END OF TIME STEP  59, STRESS PERIOD    2


                                          ================================================
                                                         FROM TIME =   60.000     TO    61.000    

>>>>>>> Stashed changes
 
 SOLVING FOR HEAD 
 FLOW MODEL IS TRANSIENT
 FLOW MODEL CONTAINS CONSTANT-HEAD CELLS


 MAXIMUM STEPSIZE DURING WHICH ANY PARTICLE CANNOT MOVE MORE THAN ONE CELL
<<<<<<< Updated upstream
 = 0.1633    (WHEN MIN. R.F.=1)  AT K=   3, I=   2, J=  29

 MAXIMUM STEPSIZE WHICH MEETS STABILITY CRITERION OF THE ADVECTION TERM
 (FOR PURE FINITE-DIFFERENCE OPTION, MIXELM=0) 
 = 0.1132    (WHEN MIN. R.F.=1)  AT K=   3, I=   2, J=  28
=======
 = 0.1870    (WHEN MIN. R.F.=1)  AT K=   3, I=   2, J=  31

 MAXIMUM STEPSIZE WHICH MEETS STABILITY CRITERION OF THE ADVECTION TERM
 (FOR PURE FINITE-DIFFERENCE OPTION, MIXELM=0) 
 = 0.1249    (WHEN MIN. R.F.=1)  AT K=   3, I=   2, J=  30
>>>>>>> Stashed changes


 TOTAL NUMBER OF POINT SOURCES/SINKS PRESENT IN THE FLOW MODEL =   240

 MAXIMUM STEPSIZE WHICH MEETS STABILITY CRITERION OF THE SINK & SOURCE TERM
 = 0.1000E+31(WHEN MIN. R.F.=1)  AT K=   0, I=   0, J=   0

 MAXIMUM STEPSIZE WHICH MEETS STABILITY CRITERION OF THE DISPERSION TERM
<<<<<<< Updated upstream
 = 0.6196E-02(WHEN MIN. R.F.=1)  AT K=   3, I=   2, J=  31
     1 CALLS TO GCG PACKAGE FOR TRANSPORT TIME STEP   8 IN FLOW TIME STEP  63 STRESS PERIOD   2
    14 TOTAL ITERATIONS
=======
 = 0.6699E-02(WHEN MIN. R.F.=1)  AT K=   3, I=   2, J=  30


     1 CALLS TO GCG PACKAGE FOR TRANSPORT TIME STEP   1 IN FLOW TIME STEP  60 STRESS PERIOD   2
    15 TOTAL ITERATIONS

 OUTPUT CONTROL FOR STRESS PERIOD    2   TIME STEP  60
    SAVE HEAD FOR ALL LAYERS
    SAVE BUDGET
>>>>>>> Stashed changes
 
 SOLVING FOR HEAD 
 FLOW MODEL IS TRANSIENT
 FLOW MODEL CONTAINS CONSTANT-HEAD CELLS


 MAXIMUM STEPSIZE DURING WHICH ANY PARTICLE CANNOT MOVE MORE THAN ONE CELL
<<<<<<< Updated upstream
 = 0.1633    (WHEN MIN. R.F.=1)  AT K=   3, I=   2, J=  29

 MAXIMUM STEPSIZE WHICH MEETS STABILITY CRITERION OF THE ADVECTION TERM
 (FOR PURE FINITE-DIFFERENCE OPTION, MIXELM=0) 
 = 0.1132    (WHEN MIN. R.F.=1)  AT K=   3, I=   2, J=  28
=======
 = 0.1870    (WHEN MIN. R.F.=1)  AT K=   3, I=   2, J=  31

 MAXIMUM STEPSIZE WHICH MEETS STABILITY CRITERION OF THE ADVECTION TERM
 (FOR PURE FINITE-DIFFERENCE OPTION, MIXELM=0) 
 = 0.1249    (WHEN MIN. R.F.=1)  AT K=   3, I=   2, J=  30
>>>>>>> Stashed changes


 TOTAL NUMBER OF POINT SOURCES/SINKS PRESENT IN THE FLOW MODEL =   240

 MAXIMUM STEPSIZE WHICH MEETS STABILITY CRITERION OF THE SINK & SOURCE TERM
 = 0.1000E+31(WHEN MIN. R.F.=1)  AT K=   0, I=   0, J=   0

 MAXIMUM STEPSIZE WHICH MEETS STABILITY CRITERION OF THE DISPERSION TERM
<<<<<<< Updated upstream
 = 0.6196E-02(WHEN MIN. R.F.=1)  AT K=   3, I=   2, J=  31
     1 CALLS TO GCG PACKAGE FOR TRANSPORT TIME STEP   9 IN FLOW TIME STEP  63 STRESS PERIOD   2
     6 TOTAL ITERATIONS
  MAXIMUM CONCENTRATION CHANGES FOR EACH ITERATION:
  MAX. CHANGE LAYER,ROW,COL MAX. CHANGE LAYER,ROW,COL MAX. CHANGE LAYER,ROW,COL MAX. CHANGE LAYER,ROW,COL MAX. CHANGE LAYER,ROW,COL
 ------------------------------------------------------------------------------------------------------------------------------------
   0.1515E-03 ( 13,  3, 54)  0.6990E-05 (  5,  2, 64)  0.1367E-05 (  6,  1, 56)  0.2458E-06 (  3,  3, 31)  0.1361E-06 (  3,  3, 30)
   0.5834E-07 (  3,  3, 31)


                                          ================================================
                                                         FROM TIME =   64.000     TO    65.000    

=======
 = 0.6699E-02(WHEN MIN. R.F.=1)  AT K=   3, I=   2, J=  30
     1 CALLS TO GCG PACKAGE FOR TRANSPORT TIME STEP   2 IN FLOW TIME STEP  60 STRESS PERIOD   2
    16 TOTAL ITERATIONS
>>>>>>> Stashed changes
 
 SOLVING FOR HEAD 
 FLOW MODEL IS TRANSIENT
 FLOW MODEL CONTAINS CONSTANT-HEAD CELLS


 MAXIMUM STEPSIZE DURING WHICH ANY PARTICLE CANNOT MOVE MORE THAN ONE CELL
<<<<<<< Updated upstream
 = 0.1633    (WHEN MIN. R.F.=1)  AT K=   3, I=   2, J=  29

 MAXIMUM STEPSIZE WHICH MEETS STABILITY CRITERION OF THE ADVECTION TERM
 (FOR PURE FINITE-DIFFERENCE OPTION, MIXELM=0) 
 = 0.1132    (WHEN MIN. R.F.=1)  AT K=   3, I=   2, J=  28
=======
 = 0.1870    (WHEN MIN. R.F.=1)  AT K=   3, I=   2, J=  31

 MAXIMUM STEPSIZE WHICH MEETS STABILITY CRITERION OF THE ADVECTION TERM
 (FOR PURE FINITE-DIFFERENCE OPTION, MIXELM=0) 
 = 0.1249    (WHEN MIN. R.F.=1)  AT K=   3, I=   2, J=  30
>>>>>>> Stashed changes


 TOTAL NUMBER OF POINT SOURCES/SINKS PRESENT IN THE FLOW MODEL =   240

 MAXIMUM STEPSIZE WHICH MEETS STABILITY CRITERION OF THE SINK & SOURCE TERM
 = 0.1000E+31(WHEN MIN. R.F.=1)  AT K=   0, I=   0, J=   0

 MAXIMUM STEPSIZE WHICH MEETS STABILITY CRITERION OF THE DISPERSION TERM
<<<<<<< Updated upstream
 = 0.6196E-02(WHEN MIN. R.F.=1)  AT K=   3, I=   2, J=  31


     1 CALLS TO GCG PACKAGE FOR TRANSPORT TIME STEP   1 IN FLOW TIME STEP  64 STRESS PERIOD   2
    14 TOTAL ITERATIONS

 NO OUTPUT CONTROL FOR STRESS PERIOD    2   TIME STEP  64
=======
 = 0.6699E-02(WHEN MIN. R.F.=1)  AT K=   3, I=   2, J=  30
     1 CALLS TO GCG PACKAGE FOR TRANSPORT TIME STEP   3 IN FLOW TIME STEP  60 STRESS PERIOD   2
    15 TOTAL ITERATIONS
>>>>>>> Stashed changes
 
 SOLVING FOR HEAD 
 FLOW MODEL IS TRANSIENT
 FLOW MODEL CONTAINS CONSTANT-HEAD CELLS


 MAXIMUM STEPSIZE DURING WHICH ANY PARTICLE CANNOT MOVE MORE THAN ONE CELL
<<<<<<< Updated upstream
 = 0.1633    (WHEN MIN. R.F.=1)  AT K=   3, I=   2, J=  29

 MAXIMUM STEPSIZE WHICH MEETS STABILITY CRITERION OF THE ADVECTION TERM
 (FOR PURE FINITE-DIFFERENCE OPTION, MIXELM=0) 
 = 0.1132    (WHEN MIN. R.F.=1)  AT K=   3, I=   2, J=  28
=======
 = 0.1870    (WHEN MIN. R.F.=1)  AT K=   3, I=   2, J=  31

 MAXIMUM STEPSIZE WHICH MEETS STABILITY CRITERION OF THE ADVECTION TERM
 (FOR PURE FINITE-DIFFERENCE OPTION, MIXELM=0) 
 = 0.1249    (WHEN MIN. R.F.=1)  AT K=   3, I=   2, J=  30
>>>>>>> Stashed changes


 TOTAL NUMBER OF POINT SOURCES/SINKS PRESENT IN THE FLOW MODEL =   240

 MAXIMUM STEPSIZE WHICH MEETS STABILITY CRITERION OF THE SINK & SOURCE TERM
 = 0.1000E+31(WHEN MIN. R.F.=1)  AT K=   0, I=   0, J=   0

 MAXIMUM STEPSIZE WHICH MEETS STABILITY CRITERION OF THE DISPERSION TERM
<<<<<<< Updated upstream
 = 0.6196E-02(WHEN MIN. R.F.=1)  AT K=   3, I=   2, J=  31
     1 CALLS TO GCG PACKAGE FOR TRANSPORT TIME STEP   2 IN FLOW TIME STEP  64 STRESS PERIOD   2
    14 TOTAL ITERATIONS
=======
 = 0.6699E-02(WHEN MIN. R.F.=1)  AT K=   3, I=   2, J=  30
     1 CALLS TO GCG PACKAGE FOR TRANSPORT TIME STEP   4 IN FLOW TIME STEP  60 STRESS PERIOD   2
    16 TOTAL ITERATIONS
>>>>>>> Stashed changes
 
 SOLVING FOR HEAD 
 FLOW MODEL IS TRANSIENT
 FLOW MODEL CONTAINS CONSTANT-HEAD CELLS


 MAXIMUM STEPSIZE DURING WHICH ANY PARTICLE CANNOT MOVE MORE THAN ONE CELL
<<<<<<< Updated upstream
 = 0.1633    (WHEN MIN. R.F.=1)  AT K=   3, I=   2, J=  29

 MAXIMUM STEPSIZE WHICH MEETS STABILITY CRITERION OF THE ADVECTION TERM
 (FOR PURE FINITE-DIFFERENCE OPTION, MIXELM=0) 
 = 0.1132    (WHEN MIN. R.F.=1)  AT K=   3, I=   2, J=  28
=======
 = 0.1870    (WHEN MIN. R.F.=1)  AT K=   3, I=   2, J=  31

 MAXIMUM STEPSIZE WHICH MEETS STABILITY CRITERION OF THE ADVECTION TERM
 (FOR PURE FINITE-DIFFERENCE OPTION, MIXELM=0) 
 = 0.1249    (WHEN MIN. R.F.=1)  AT K=   3, I=   2, J=  30
>>>>>>> Stashed changes


 TOTAL NUMBER OF POINT SOURCES/SINKS PRESENT IN THE FLOW MODEL =   240

 MAXIMUM STEPSIZE WHICH MEETS STABILITY CRITERION OF THE SINK & SOURCE TERM
 = 0.1000E+31(WHEN MIN. R.F.=1)  AT K=   0, I=   0, J=   0

 MAXIMUM STEPSIZE WHICH MEETS STABILITY CRITERION OF THE DISPERSION TERM
<<<<<<< Updated upstream
 = 0.6196E-02(WHEN MIN. R.F.=1)  AT K=   3, I=   2, J=  31
     1 CALLS TO GCG PACKAGE FOR TRANSPORT TIME STEP   3 IN FLOW TIME STEP  64 STRESS PERIOD   2
    14 TOTAL ITERATIONS
=======
 = 0.6699E-02(WHEN MIN. R.F.=1)  AT K=   3, I=   2, J=  30
     1 CALLS TO GCG PACKAGE FOR TRANSPORT TIME STEP   5 IN FLOW TIME STEP  60 STRESS PERIOD   2
    15 TOTAL ITERATIONS
>>>>>>> Stashed changes
 
 SOLVING FOR HEAD 
 FLOW MODEL IS TRANSIENT
 FLOW MODEL CONTAINS CONSTANT-HEAD CELLS


 MAXIMUM STEPSIZE DURING WHICH ANY PARTICLE CANNOT MOVE MORE THAN ONE CELL
<<<<<<< Updated upstream
 = 0.1633    (WHEN MIN. R.F.=1)  AT K=   3, I=   2, J=  29

 MAXIMUM STEPSIZE WHICH MEETS STABILITY CRITERION OF THE ADVECTION TERM
 (FOR PURE FINITE-DIFFERENCE OPTION, MIXELM=0) 
 = 0.1132    (WHEN MIN. R.F.=1)  AT K=   3, I=   2, J=  28
=======
 = 0.1870    (WHEN MIN. R.F.=1)  AT K=   3, I=   2, J=  31

 MAXIMUM STEPSIZE WHICH MEETS STABILITY CRITERION OF THE ADVECTION TERM
 (FOR PURE FINITE-DIFFERENCE OPTION, MIXELM=0) 
 = 0.1249    (WHEN MIN. R.F.=1)  AT K=   3, I=   2, J=  30
>>>>>>> Stashed changes


 TOTAL NUMBER OF POINT SOURCES/SINKS PRESENT IN THE FLOW MODEL =   240

 MAXIMUM STEPSIZE WHICH MEETS STABILITY CRITERION OF THE SINK & SOURCE TERM
 = 0.1000E+31(WHEN MIN. R.F.=1)  AT K=   0, I=   0, J=   0

 MAXIMUM STEPSIZE WHICH MEETS STABILITY CRITERION OF THE DISPERSION TERM
<<<<<<< Updated upstream
 = 0.6196E-02(WHEN MIN. R.F.=1)  AT K=   3, I=   2, J=  31
     1 CALLS TO GCG PACKAGE FOR TRANSPORT TIME STEP   4 IN FLOW TIME STEP  64 STRESS PERIOD   2
    14 TOTAL ITERATIONS
=======
 = 0.6699E-02(WHEN MIN. R.F.=1)  AT K=   3, I=   2, J=  30
     1 CALLS TO GCG PACKAGE FOR TRANSPORT TIME STEP   6 IN FLOW TIME STEP  60 STRESS PERIOD   2
    16 TOTAL ITERATIONS
>>>>>>> Stashed changes
 
 SOLVING FOR HEAD 
 FLOW MODEL IS TRANSIENT
 FLOW MODEL CONTAINS CONSTANT-HEAD CELLS


 MAXIMUM STEPSIZE DURING WHICH ANY PARTICLE CANNOT MOVE MORE THAN ONE CELL
<<<<<<< Updated upstream
 = 0.1633    (WHEN MIN. R.F.=1)  AT K=   3, I=   2, J=  29

 MAXIMUM STEPSIZE WHICH MEETS STABILITY CRITERION OF THE ADVECTION TERM
 (FOR PURE FINITE-DIFFERENCE OPTION, MIXELM=0) 
 = 0.1132    (WHEN MIN. R.F.=1)  AT K=   3, I=   2, J=  28
=======
 = 0.1870    (WHEN MIN. R.F.=1)  AT K=   3, I=   2, J=  31

 MAXIMUM STEPSIZE WHICH MEETS STABILITY CRITERION OF THE ADVECTION TERM
 (FOR PURE FINITE-DIFFERENCE OPTION, MIXELM=0) 
 = 0.1249    (WHEN MIN. R.F.=1)  AT K=   3, I=   2, J=  30
>>>>>>> Stashed changes


 TOTAL NUMBER OF POINT SOURCES/SINKS PRESENT IN THE FLOW MODEL =   240

 MAXIMUM STEPSIZE WHICH MEETS STABILITY CRITERION OF THE SINK & SOURCE TERM
 = 0.1000E+31(WHEN MIN. R.F.=1)  AT K=   0, I=   0, J=   0

 MAXIMUM STEPSIZE WHICH MEETS STABILITY CRITERION OF THE DISPERSION TERM
<<<<<<< Updated upstream
 = 0.6196E-02(WHEN MIN. R.F.=1)  AT K=   3, I=   2, J=  31
     1 CALLS TO GCG PACKAGE FOR TRANSPORT TIME STEP   5 IN FLOW TIME STEP  64 STRESS PERIOD   2
    14 TOTAL ITERATIONS
=======
 = 0.6699E-02(WHEN MIN. R.F.=1)  AT K=   3, I=   2, J=  30
     1 CALLS TO GCG PACKAGE FOR TRANSPORT TIME STEP   7 IN FLOW TIME STEP  60 STRESS PERIOD   2
    15 TOTAL ITERATIONS
>>>>>>> Stashed changes
 
 SOLVING FOR HEAD 
 FLOW MODEL IS TRANSIENT
 FLOW MODEL CONTAINS CONSTANT-HEAD CELLS


 MAXIMUM STEPSIZE DURING WHICH ANY PARTICLE CANNOT MOVE MORE THAN ONE CELL
<<<<<<< Updated upstream
 = 0.1633    (WHEN MIN. R.F.=1)  AT K=   3, I=   2, J=  29

 MAXIMUM STEPSIZE WHICH MEETS STABILITY CRITERION OF THE ADVECTION TERM
 (FOR PURE FINITE-DIFFERENCE OPTION, MIXELM=0) 
 = 0.1132    (WHEN MIN. R.F.=1)  AT K=   3, I=   2, J=  28
=======
 = 0.1870    (WHEN MIN. R.F.=1)  AT K=   3, I=   2, J=  31

 MAXIMUM STEPSIZE WHICH MEETS STABILITY CRITERION OF THE ADVECTION TERM
 (FOR PURE FINITE-DIFFERENCE OPTION, MIXELM=0) 
 = 0.1249    (WHEN MIN. R.F.=1)  AT K=   3, I=   2, J=  30
>>>>>>> Stashed changes


 TOTAL NUMBER OF POINT SOURCES/SINKS PRESENT IN THE FLOW MODEL =   240

 MAXIMUM STEPSIZE WHICH MEETS STABILITY CRITERION OF THE SINK & SOURCE TERM
 = 0.1000E+31(WHEN MIN. R.F.=1)  AT K=   0, I=   0, J=   0

 MAXIMUM STEPSIZE WHICH MEETS STABILITY CRITERION OF THE DISPERSION TERM
<<<<<<< Updated upstream
 = 0.6196E-02(WHEN MIN. R.F.=1)  AT K=   3, I=   2, J=  31
     1 CALLS TO GCG PACKAGE FOR TRANSPORT TIME STEP   6 IN FLOW TIME STEP  64 STRESS PERIOD   2
    14 TOTAL ITERATIONS
=======
 = 0.6699E-02(WHEN MIN. R.F.=1)  AT K=   3, I=   2, J=  30
     1 CALLS TO GCG PACKAGE FOR TRANSPORT TIME STEP   8 IN FLOW TIME STEP  60 STRESS PERIOD   2
     6 TOTAL ITERATIONS
  MAXIMUM CONCENTRATION CHANGES FOR EACH ITERATION:
  MAX. CHANGE LAYER,ROW,COL MAX. CHANGE LAYER,ROW,COL MAX. CHANGE LAYER,ROW,COL MAX. CHANGE LAYER,ROW,COL MAX. CHANGE LAYER,ROW,COL
 ------------------------------------------------------------------------------------------------------------------------------------
   0.1525E-03 ( 17,  1, 50)  0.4781E-05 (  5,  2, 61)  0.9449E-06 (  4,  2, 44)  0.3325E-06 (  3,  2, 37)  0.1006E-06 (  4,  3, 27)
   0.3898E-07 (  3,  3, 27)
 UBDSV1 SAVING "         STORAGE" ON UNIT  53 AT TIME STEP 60, STRESS PERIOD   2
 UBDSV2 SAVING "   CONSTANT HEAD" ON UNIT  53 AT TIME STEP 60, STRESS PERIOD   2
 UBDSV1 SAVING "FLOW RIGHT FACE " ON UNIT  53 AT TIME STEP 60, STRESS PERIOD   2
 UBDSV1 SAVING "FLOW FRONT FACE " ON UNIT  53 AT TIME STEP 60, STRESS PERIOD   2
 UBDSV1 SAVING "FLOW LOWER FACE " ON UNIT  53 AT TIME STEP 60, STRESS PERIOD   2
 UBDSV1 SAVING "            DCDT" ON UNIT  53 AT TIME STEP 60, STRESS PERIOD   2

 HEAD WILL BE SAVED ON UNIT   51 AT END OF TIME STEP  60, STRESS PERIOD    2


                                          ================================================
                                                         FROM TIME =   61.000     TO    62.000    

>>>>>>> Stashed changes
 
 SOLVING FOR HEAD 
 FLOW MODEL IS TRANSIENT
 FLOW MODEL CONTAINS CONSTANT-HEAD CELLS


 MAXIMUM STEPSIZE DURING WHICH ANY PARTICLE CANNOT MOVE MORE THAN ONE CELL
<<<<<<< Updated upstream
 = 0.1633    (WHEN MIN. R.F.=1)  AT K=   3, I=   2, J=  29

 MAXIMUM STEPSIZE WHICH MEETS STABILITY CRITERION OF THE ADVECTION TERM
 (FOR PURE FINITE-DIFFERENCE OPTION, MIXELM=0) 
 = 0.1132    (WHEN MIN. R.F.=1)  AT K=   3, I=   2, J=  28
=======
 = 0.1870    (WHEN MIN. R.F.=1)  AT K=   3, I=   2, J=  31

 MAXIMUM STEPSIZE WHICH MEETS STABILITY CRITERION OF THE ADVECTION TERM
 (FOR PURE FINITE-DIFFERENCE OPTION, MIXELM=0) 
 = 0.1249    (WHEN MIN. R.F.=1)  AT K=   3, I=   2, J=  30
>>>>>>> Stashed changes


 TOTAL NUMBER OF POINT SOURCES/SINKS PRESENT IN THE FLOW MODEL =   240

 MAXIMUM STEPSIZE WHICH MEETS STABILITY CRITERION OF THE SINK & SOURCE TERM
 = 0.1000E+31(WHEN MIN. R.F.=1)  AT K=   0, I=   0, J=   0

 MAXIMUM STEPSIZE WHICH MEETS STABILITY CRITERION OF THE DISPERSION TERM
<<<<<<< Updated upstream
 = 0.6196E-02(WHEN MIN. R.F.=1)  AT K=   3, I=   2, J=  31
     1 CALLS TO GCG PACKAGE FOR TRANSPORT TIME STEP   7 IN FLOW TIME STEP  64 STRESS PERIOD   2
    14 TOTAL ITERATIONS
=======
 = 0.6699E-02(WHEN MIN. R.F.=1)  AT K=   3, I=   2, J=  30


     1 CALLS TO GCG PACKAGE FOR TRANSPORT TIME STEP   1 IN FLOW TIME STEP  61 STRESS PERIOD   2
    15 TOTAL ITERATIONS

 OUTPUT CONTROL FOR STRESS PERIOD    2   TIME STEP  61
    SAVE HEAD FOR ALL LAYERS
    SAVE BUDGET
>>>>>>> Stashed changes
 
 SOLVING FOR HEAD 
 FLOW MODEL IS TRANSIENT
 FLOW MODEL CONTAINS CONSTANT-HEAD CELLS


 MAXIMUM STEPSIZE DURING WHICH ANY PARTICLE CANNOT MOVE MORE THAN ONE CELL
<<<<<<< Updated upstream
 = 0.1633    (WHEN MIN. R.F.=1)  AT K=   3, I=   2, J=  29

 MAXIMUM STEPSIZE WHICH MEETS STABILITY CRITERION OF THE ADVECTION TERM
 (FOR PURE FINITE-DIFFERENCE OPTION, MIXELM=0) 
 = 0.1132    (WHEN MIN. R.F.=1)  AT K=   3, I=   2, J=  28
=======
 = 0.1870    (WHEN MIN. R.F.=1)  AT K=   3, I=   2, J=  31

 MAXIMUM STEPSIZE WHICH MEETS STABILITY CRITERION OF THE ADVECTION TERM
 (FOR PURE FINITE-DIFFERENCE OPTION, MIXELM=0) 
 = 0.1248    (WHEN MIN. R.F.=1)  AT K=   3, I=   2, J=  30
>>>>>>> Stashed changes


 TOTAL NUMBER OF POINT SOURCES/SINKS PRESENT IN THE FLOW MODEL =   240

 MAXIMUM STEPSIZE WHICH MEETS STABILITY CRITERION OF THE SINK & SOURCE TERM
 = 0.1000E+31(WHEN MIN. R.F.=1)  AT K=   0, I=   0, J=   0

 MAXIMUM STEPSIZE WHICH MEETS STABILITY CRITERION OF THE DISPERSION TERM
<<<<<<< Updated upstream
 = 0.6196E-02(WHEN MIN. R.F.=1)  AT K=   3, I=   2, J=  31
     1 CALLS TO GCG PACKAGE FOR TRANSPORT TIME STEP   8 IN FLOW TIME STEP  64 STRESS PERIOD   2
    14 TOTAL ITERATIONS
=======
 = 0.6699E-02(WHEN MIN. R.F.=1)  AT K=   3, I=   2, J=  30
     1 CALLS TO GCG PACKAGE FOR TRANSPORT TIME STEP   2 IN FLOW TIME STEP  61 STRESS PERIOD   2
    15 TOTAL ITERATIONS
>>>>>>> Stashed changes
 
 SOLVING FOR HEAD 
 FLOW MODEL IS TRANSIENT
 FLOW MODEL CONTAINS CONSTANT-HEAD CELLS


 MAXIMUM STEPSIZE DURING WHICH ANY PARTICLE CANNOT MOVE MORE THAN ONE CELL
<<<<<<< Updated upstream
 = 0.1633    (WHEN MIN. R.F.=1)  AT K=   3, I=   2, J=  29

 MAXIMUM STEPSIZE WHICH MEETS STABILITY CRITERION OF THE ADVECTION TERM
 (FOR PURE FINITE-DIFFERENCE OPTION, MIXELM=0) 
 = 0.1132    (WHEN MIN. R.F.=1)  AT K=   3, I=   2, J=  28
=======
 = 0.1870    (WHEN MIN. R.F.=1)  AT K=   3, I=   2, J=  31

 MAXIMUM STEPSIZE WHICH MEETS STABILITY CRITERION OF THE ADVECTION TERM
 (FOR PURE FINITE-DIFFERENCE OPTION, MIXELM=0) 
 = 0.1248    (WHEN MIN. R.F.=1)  AT K=   3, I=   2, J=  30
>>>>>>> Stashed changes


 TOTAL NUMBER OF POINT SOURCES/SINKS PRESENT IN THE FLOW MODEL =   240

 MAXIMUM STEPSIZE WHICH MEETS STABILITY CRITERION OF THE SINK & SOURCE TERM
 = 0.1000E+31(WHEN MIN. R.F.=1)  AT K=   0, I=   0, J=   0

 MAXIMUM STEPSIZE WHICH MEETS STABILITY CRITERION OF THE DISPERSION TERM
<<<<<<< Updated upstream
 = 0.6196E-02(WHEN MIN. R.F.=1)  AT K=   3, I=   2, J=  31
     1 CALLS TO GCG PACKAGE FOR TRANSPORT TIME STEP   9 IN FLOW TIME STEP  64 STRESS PERIOD   2
     6 TOTAL ITERATIONS
  MAXIMUM CONCENTRATION CHANGES FOR EACH ITERATION:
  MAX. CHANGE LAYER,ROW,COL MAX. CHANGE LAYER,ROW,COL MAX. CHANGE LAYER,ROW,COL MAX. CHANGE LAYER,ROW,COL MAX. CHANGE LAYER,ROW,COL
 ------------------------------------------------------------------------------------------------------------------------------------
   0.1499E-03 ( 13,  3, 54)  0.6794E-05 (  5,  2, 64)  0.1322E-05 (  6,  1, 56)  0.2283E-06 (  4,  3, 28)  0.1274E-06 (  3,  3, 30)
   0.5544E-07 (  4,  3, 28)


                                          ================================================
                                                         FROM TIME =   65.000     TO    66.000    

=======
 = 0.6699E-02(WHEN MIN. R.F.=1)  AT K=   3, I=   2, J=  30
     1 CALLS TO GCG PACKAGE FOR TRANSPORT TIME STEP   3 IN FLOW TIME STEP  61 STRESS PERIOD   2
    15 TOTAL ITERATIONS
>>>>>>> Stashed changes
 
 SOLVING FOR HEAD 
 FLOW MODEL IS TRANSIENT
 FLOW MODEL CONTAINS CONSTANT-HEAD CELLS


 MAXIMUM STEPSIZE DURING WHICH ANY PARTICLE CANNOT MOVE MORE THAN ONE CELL
<<<<<<< Updated upstream
 = 0.1633    (WHEN MIN. R.F.=1)  AT K=   3, I=   2, J=  29

 MAXIMUM STEPSIZE WHICH MEETS STABILITY CRITERION OF THE ADVECTION TERM
 (FOR PURE FINITE-DIFFERENCE OPTION, MIXELM=0) 
 = 0.1132    (WHEN MIN. R.F.=1)  AT K=   3, I=   2, J=  28
=======
 = 0.1870    (WHEN MIN. R.F.=1)  AT K=   3, I=   2, J=  31

 MAXIMUM STEPSIZE WHICH MEETS STABILITY CRITERION OF THE ADVECTION TERM
 (FOR PURE FINITE-DIFFERENCE OPTION, MIXELM=0) 
 = 0.1248    (WHEN MIN. R.F.=1)  AT K=   3, I=   2, J=  30
>>>>>>> Stashed changes


 TOTAL NUMBER OF POINT SOURCES/SINKS PRESENT IN THE FLOW MODEL =   240

 MAXIMUM STEPSIZE WHICH MEETS STABILITY CRITERION OF THE SINK & SOURCE TERM
 = 0.1000E+31(WHEN MIN. R.F.=1)  AT K=   0, I=   0, J=   0

 MAXIMUM STEPSIZE WHICH MEETS STABILITY CRITERION OF THE DISPERSION TERM
<<<<<<< Updated upstream
 = 0.6196E-02(WHEN MIN. R.F.=1)  AT K=   3, I=   2, J=  31


     1 CALLS TO GCG PACKAGE FOR TRANSPORT TIME STEP   1 IN FLOW TIME STEP  65 STRESS PERIOD   2
    14 TOTAL ITERATIONS

 NO OUTPUT CONTROL FOR STRESS PERIOD    2   TIME STEP  65
=======
 = 0.6699E-02(WHEN MIN. R.F.=1)  AT K=   3, I=   2, J=  30
     1 CALLS TO GCG PACKAGE FOR TRANSPORT TIME STEP   4 IN FLOW TIME STEP  61 STRESS PERIOD   2
    15 TOTAL ITERATIONS
>>>>>>> Stashed changes
 
 SOLVING FOR HEAD 
 FLOW MODEL IS TRANSIENT
 FLOW MODEL CONTAINS CONSTANT-HEAD CELLS


 MAXIMUM STEPSIZE DURING WHICH ANY PARTICLE CANNOT MOVE MORE THAN ONE CELL
<<<<<<< Updated upstream
 = 0.1633    (WHEN MIN. R.F.=1)  AT K=   3, I=   2, J=  29

 MAXIMUM STEPSIZE WHICH MEETS STABILITY CRITERION OF THE ADVECTION TERM
 (FOR PURE FINITE-DIFFERENCE OPTION, MIXELM=0) 
 = 0.1132    (WHEN MIN. R.F.=1)  AT K=   3, I=   2, J=  28
=======
 = 0.1870    (WHEN MIN. R.F.=1)  AT K=   3, I=   2, J=  31

 MAXIMUM STEPSIZE WHICH MEETS STABILITY CRITERION OF THE ADVECTION TERM
 (FOR PURE FINITE-DIFFERENCE OPTION, MIXELM=0) 
 = 0.1248    (WHEN MIN. R.F.=1)  AT K=   3, I=   2, J=  30
>>>>>>> Stashed changes


 TOTAL NUMBER OF POINT SOURCES/SINKS PRESENT IN THE FLOW MODEL =   240

 MAXIMUM STEPSIZE WHICH MEETS STABILITY CRITERION OF THE SINK & SOURCE TERM
 = 0.1000E+31(WHEN MIN. R.F.=1)  AT K=   0, I=   0, J=   0

 MAXIMUM STEPSIZE WHICH MEETS STABILITY CRITERION OF THE DISPERSION TERM
<<<<<<< Updated upstream
 = 0.6196E-02(WHEN MIN. R.F.=1)  AT K=   3, I=   2, J=  31
     1 CALLS TO GCG PACKAGE FOR TRANSPORT TIME STEP   2 IN FLOW TIME STEP  65 STRESS PERIOD   2
    14 TOTAL ITERATIONS
=======
 = 0.6699E-02(WHEN MIN. R.F.=1)  AT K=   3, I=   2, J=  30
     1 CALLS TO GCG PACKAGE FOR TRANSPORT TIME STEP   5 IN FLOW TIME STEP  61 STRESS PERIOD   2
    15 TOTAL ITERATIONS
>>>>>>> Stashed changes
 
 SOLVING FOR HEAD 
 FLOW MODEL IS TRANSIENT
 FLOW MODEL CONTAINS CONSTANT-HEAD CELLS


 MAXIMUM STEPSIZE DURING WHICH ANY PARTICLE CANNOT MOVE MORE THAN ONE CELL
<<<<<<< Updated upstream
 = 0.1633    (WHEN MIN. R.F.=1)  AT K=   3, I=   2, J=  29

 MAXIMUM STEPSIZE WHICH MEETS STABILITY CRITERION OF THE ADVECTION TERM
 (FOR PURE FINITE-DIFFERENCE OPTION, MIXELM=0) 
 = 0.1132    (WHEN MIN. R.F.=1)  AT K=   3, I=   2, J=  28
=======
 = 0.1870    (WHEN MIN. R.F.=1)  AT K=   3, I=   2, J=  31

 MAXIMUM STEPSIZE WHICH MEETS STABILITY CRITERION OF THE ADVECTION TERM
 (FOR PURE FINITE-DIFFERENCE OPTION, MIXELM=0) 
 = 0.1248    (WHEN MIN. R.F.=1)  AT K=   3, I=   2, J=  30
>>>>>>> Stashed changes


 TOTAL NUMBER OF POINT SOURCES/SINKS PRESENT IN THE FLOW MODEL =   240

 MAXIMUM STEPSIZE WHICH MEETS STABILITY CRITERION OF THE SINK & SOURCE TERM
 = 0.1000E+31(WHEN MIN. R.F.=1)  AT K=   0, I=   0, J=   0

 MAXIMUM STEPSIZE WHICH MEETS STABILITY CRITERION OF THE DISPERSION TERM
<<<<<<< Updated upstream
 = 0.6196E-02(WHEN MIN. R.F.=1)  AT K=   3, I=   2, J=  31
     1 CALLS TO GCG PACKAGE FOR TRANSPORT TIME STEP   3 IN FLOW TIME STEP  65 STRESS PERIOD   2
    14 TOTAL ITERATIONS
=======
 = 0.6699E-02(WHEN MIN. R.F.=1)  AT K=   3, I=   2, J=  30
     1 CALLS TO GCG PACKAGE FOR TRANSPORT TIME STEP   6 IN FLOW TIME STEP  61 STRESS PERIOD   2
    15 TOTAL ITERATIONS
>>>>>>> Stashed changes
 
 SOLVING FOR HEAD 
 FLOW MODEL IS TRANSIENT
 FLOW MODEL CONTAINS CONSTANT-HEAD CELLS


 MAXIMUM STEPSIZE DURING WHICH ANY PARTICLE CANNOT MOVE MORE THAN ONE CELL
<<<<<<< Updated upstream
 = 0.1633    (WHEN MIN. R.F.=1)  AT K=   3, I=   2, J=  29

 MAXIMUM STEPSIZE WHICH MEETS STABILITY CRITERION OF THE ADVECTION TERM
 (FOR PURE FINITE-DIFFERENCE OPTION, MIXELM=0) 
 = 0.1132    (WHEN MIN. R.F.=1)  AT K=   3, I=   2, J=  28
=======
 = 0.1870    (WHEN MIN. R.F.=1)  AT K=   3, I=   2, J=  31

 MAXIMUM STEPSIZE WHICH MEETS STABILITY CRITERION OF THE ADVECTION TERM
 (FOR PURE FINITE-DIFFERENCE OPTION, MIXELM=0) 
 = 0.1248    (WHEN MIN. R.F.=1)  AT K=   3, I=   2, J=  30
>>>>>>> Stashed changes


 TOTAL NUMBER OF POINT SOURCES/SINKS PRESENT IN THE FLOW MODEL =   240

 MAXIMUM STEPSIZE WHICH MEETS STABILITY CRITERION OF THE SINK & SOURCE TERM
 = 0.1000E+31(WHEN MIN. R.F.=1)  AT K=   0, I=   0, J=   0

 MAXIMUM STEPSIZE WHICH MEETS STABILITY CRITERION OF THE DISPERSION TERM
<<<<<<< Updated upstream
 = 0.6196E-02(WHEN MIN. R.F.=1)  AT K=   3, I=   2, J=  31
     1 CALLS TO GCG PACKAGE FOR TRANSPORT TIME STEP   4 IN FLOW TIME STEP  65 STRESS PERIOD   2
    14 TOTAL ITERATIONS
=======
 = 0.6699E-02(WHEN MIN. R.F.=1)  AT K=   3, I=   2, J=  30
     1 CALLS TO GCG PACKAGE FOR TRANSPORT TIME STEP   7 IN FLOW TIME STEP  61 STRESS PERIOD   2
    15 TOTAL ITERATIONS
>>>>>>> Stashed changes
 
 SOLVING FOR HEAD 
 FLOW MODEL IS TRANSIENT
 FLOW MODEL CONTAINS CONSTANT-HEAD CELLS


 MAXIMUM STEPSIZE DURING WHICH ANY PARTICLE CANNOT MOVE MORE THAN ONE CELL
<<<<<<< Updated upstream
 = 0.1633    (WHEN MIN. R.F.=1)  AT K=   3, I=   2, J=  29

 MAXIMUM STEPSIZE WHICH MEETS STABILITY CRITERION OF THE ADVECTION TERM
 (FOR PURE FINITE-DIFFERENCE OPTION, MIXELM=0) 
 = 0.1132    (WHEN MIN. R.F.=1)  AT K=   3, I=   2, J=  28
=======
 = 0.1870    (WHEN MIN. R.F.=1)  AT K=   3, I=   2, J=  31

 MAXIMUM STEPSIZE WHICH MEETS STABILITY CRITERION OF THE ADVECTION TERM
 (FOR PURE FINITE-DIFFERENCE OPTION, MIXELM=0) 
 = 0.1248    (WHEN MIN. R.F.=1)  AT K=   3, I=   2, J=  30
>>>>>>> Stashed changes


 TOTAL NUMBER OF POINT SOURCES/SINKS PRESENT IN THE FLOW MODEL =   240

 MAXIMUM STEPSIZE WHICH MEETS STABILITY CRITERION OF THE SINK & SOURCE TERM
 = 0.1000E+31(WHEN MIN. R.F.=1)  AT K=   0, I=   0, J=   0

 MAXIMUM STEPSIZE WHICH MEETS STABILITY CRITERION OF THE DISPERSION TERM
<<<<<<< Updated upstream
 = 0.6196E-02(WHEN MIN. R.F.=1)  AT K=   3, I=   2, J=  31
     1 CALLS TO GCG PACKAGE FOR TRANSPORT TIME STEP   5 IN FLOW TIME STEP  65 STRESS PERIOD   2
    14 TOTAL ITERATIONS
=======
 = 0.6699E-02(WHEN MIN. R.F.=1)  AT K=   3, I=   2, J=  30
     1 CALLS TO GCG PACKAGE FOR TRANSPORT TIME STEP   8 IN FLOW TIME STEP  61 STRESS PERIOD   2
     5 TOTAL ITERATIONS
  MAXIMUM CONCENTRATION CHANGES FOR EACH ITERATION:
  MAX. CHANGE LAYER,ROW,COL MAX. CHANGE LAYER,ROW,COL MAX. CHANGE LAYER,ROW,COL MAX. CHANGE LAYER,ROW,COL MAX. CHANGE LAYER,ROW,COL
 ------------------------------------------------------------------------------------------------------------------------------------
   0.1500E-03 ( 17,  1, 50)  0.4630E-05 (  5,  2, 61)  0.9002E-06 (  4,  2, 44)  0.3121E-06 (  3,  2, 37)  0.9221E-07 (  4,  2, 31)
 UBDSV1 SAVING "         STORAGE" ON UNIT  53 AT TIME STEP 61, STRESS PERIOD   2
 UBDSV2 SAVING "   CONSTANT HEAD" ON UNIT  53 AT TIME STEP 61, STRESS PERIOD   2
 UBDSV1 SAVING "FLOW RIGHT FACE " ON UNIT  53 AT TIME STEP 61, STRESS PERIOD   2
 UBDSV1 SAVING "FLOW FRONT FACE " ON UNIT  53 AT TIME STEP 61, STRESS PERIOD   2
 UBDSV1 SAVING "FLOW LOWER FACE " ON UNIT  53 AT TIME STEP 61, STRESS PERIOD   2
 UBDSV1 SAVING "            DCDT" ON UNIT  53 AT TIME STEP 61, STRESS PERIOD   2

 HEAD WILL BE SAVED ON UNIT   51 AT END OF TIME STEP  61, STRESS PERIOD    2


                                          ================================================
                                                         FROM TIME =   62.000     TO    63.000    

>>>>>>> Stashed changes
 
 SOLVING FOR HEAD 
 FLOW MODEL IS TRANSIENT
 FLOW MODEL CONTAINS CONSTANT-HEAD CELLS


 MAXIMUM STEPSIZE DURING WHICH ANY PARTICLE CANNOT MOVE MORE THAN ONE CELL
<<<<<<< Updated upstream
 = 0.1633    (WHEN MIN. R.F.=1)  AT K=   3, I=   2, J=  29

 MAXIMUM STEPSIZE WHICH MEETS STABILITY CRITERION OF THE ADVECTION TERM
 (FOR PURE FINITE-DIFFERENCE OPTION, MIXELM=0) 
 = 0.1132    (WHEN MIN. R.F.=1)  AT K=   3, I=   2, J=  28
=======
 = 0.1870    (WHEN MIN. R.F.=1)  AT K=   3, I=   2, J=  31

 MAXIMUM STEPSIZE WHICH MEETS STABILITY CRITERION OF THE ADVECTION TERM
 (FOR PURE FINITE-DIFFERENCE OPTION, MIXELM=0) 
 = 0.1248    (WHEN MIN. R.F.=1)  AT K=   3, I=   2, J=  30
>>>>>>> Stashed changes


 TOTAL NUMBER OF POINT SOURCES/SINKS PRESENT IN THE FLOW MODEL =   240

 MAXIMUM STEPSIZE WHICH MEETS STABILITY CRITERION OF THE SINK & SOURCE TERM
 = 0.1000E+31(WHEN MIN. R.F.=1)  AT K=   0, I=   0, J=   0

 MAXIMUM STEPSIZE WHICH MEETS STABILITY CRITERION OF THE DISPERSION TERM
<<<<<<< Updated upstream
 = 0.6196E-02(WHEN MIN. R.F.=1)  AT K=   3, I=   2, J=  31
     1 CALLS TO GCG PACKAGE FOR TRANSPORT TIME STEP   6 IN FLOW TIME STEP  65 STRESS PERIOD   2
    14 TOTAL ITERATIONS
=======
 = 0.6699E-02(WHEN MIN. R.F.=1)  AT K=   3, I=   2, J=  30


     1 CALLS TO GCG PACKAGE FOR TRANSPORT TIME STEP   1 IN FLOW TIME STEP  62 STRESS PERIOD   2
    15 TOTAL ITERATIONS

 OUTPUT CONTROL FOR STRESS PERIOD    2   TIME STEP  62
    SAVE HEAD FOR ALL LAYERS
    SAVE BUDGET
>>>>>>> Stashed changes
 
 SOLVING FOR HEAD 
 FLOW MODEL IS TRANSIENT
 FLOW MODEL CONTAINS CONSTANT-HEAD CELLS


 MAXIMUM STEPSIZE DURING WHICH ANY PARTICLE CANNOT MOVE MORE THAN ONE CELL
<<<<<<< Updated upstream
 = 0.1633    (WHEN MIN. R.F.=1)  AT K=   3, I=   2, J=  29

 MAXIMUM STEPSIZE WHICH MEETS STABILITY CRITERION OF THE ADVECTION TERM
 (FOR PURE FINITE-DIFFERENCE OPTION, MIXELM=0) 
 = 0.1132    (WHEN MIN. R.F.=1)  AT K=   3, I=   2, J=  28
=======
 = 0.1869    (WHEN MIN. R.F.=1)  AT K=   3, I=   2, J=  31

 MAXIMUM STEPSIZE WHICH MEETS STABILITY CRITERION OF THE ADVECTION TERM
 (FOR PURE FINITE-DIFFERENCE OPTION, MIXELM=0) 
 = 0.1248    (WHEN MIN. R.F.=1)  AT K=   3, I=   2, J=  30
>>>>>>> Stashed changes


 TOTAL NUMBER OF POINT SOURCES/SINKS PRESENT IN THE FLOW MODEL =   240

 MAXIMUM STEPSIZE WHICH MEETS STABILITY CRITERION OF THE SINK & SOURCE TERM
 = 0.1000E+31(WHEN MIN. R.F.=1)  AT K=   0, I=   0, J=   0

 MAXIMUM STEPSIZE WHICH MEETS STABILITY CRITERION OF THE DISPERSION TERM
<<<<<<< Updated upstream
 = 0.6196E-02(WHEN MIN. R.F.=1)  AT K=   3, I=   2, J=  31
     1 CALLS TO GCG PACKAGE FOR TRANSPORT TIME STEP   7 IN FLOW TIME STEP  65 STRESS PERIOD   2
    14 TOTAL ITERATIONS
=======
 = 0.6699E-02(WHEN MIN. R.F.=1)  AT K=   3, I=   2, J=  30
     1 CALLS TO GCG PACKAGE FOR TRANSPORT TIME STEP   2 IN FLOW TIME STEP  62 STRESS PERIOD   2
    15 TOTAL ITERATIONS
>>>>>>> Stashed changes
 
 SOLVING FOR HEAD 
 FLOW MODEL IS TRANSIENT
 FLOW MODEL CONTAINS CONSTANT-HEAD CELLS


 MAXIMUM STEPSIZE DURING WHICH ANY PARTICLE CANNOT MOVE MORE THAN ONE CELL
<<<<<<< Updated upstream
 = 0.1633    (WHEN MIN. R.F.=1)  AT K=   3, I=   2, J=  29

 MAXIMUM STEPSIZE WHICH MEETS STABILITY CRITERION OF THE ADVECTION TERM
 (FOR PURE FINITE-DIFFERENCE OPTION, MIXELM=0) 
 = 0.1132    (WHEN MIN. R.F.=1)  AT K=   3, I=   2, J=  28
=======
 = 0.1869    (WHEN MIN. R.F.=1)  AT K=   3, I=   2, J=  31

 MAXIMUM STEPSIZE WHICH MEETS STABILITY CRITERION OF THE ADVECTION TERM
 (FOR PURE FINITE-DIFFERENCE OPTION, MIXELM=0) 
 = 0.1248    (WHEN MIN. R.F.=1)  AT K=   3, I=   2, J=  30
>>>>>>> Stashed changes


 TOTAL NUMBER OF POINT SOURCES/SINKS PRESENT IN THE FLOW MODEL =   240

 MAXIMUM STEPSIZE WHICH MEETS STABILITY CRITERION OF THE SINK & SOURCE TERM
 = 0.1000E+31(WHEN MIN. R.F.=1)  AT K=   0, I=   0, J=   0

 MAXIMUM STEPSIZE WHICH MEETS STABILITY CRITERION OF THE DISPERSION TERM
<<<<<<< Updated upstream
 = 0.6196E-02(WHEN MIN. R.F.=1)  AT K=   3, I=   2, J=  31
     1 CALLS TO GCG PACKAGE FOR TRANSPORT TIME STEP   8 IN FLOW TIME STEP  65 STRESS PERIOD   2
    14 TOTAL ITERATIONS
=======
 = 0.6699E-02(WHEN MIN. R.F.=1)  AT K=   3, I=   2, J=  30
     1 CALLS TO GCG PACKAGE FOR TRANSPORT TIME STEP   3 IN FLOW TIME STEP  62 STRESS PERIOD   2
    15 TOTAL ITERATIONS
>>>>>>> Stashed changes
 
 SOLVING FOR HEAD 
 FLOW MODEL IS TRANSIENT
 FLOW MODEL CONTAINS CONSTANT-HEAD CELLS


 MAXIMUM STEPSIZE DURING WHICH ANY PARTICLE CANNOT MOVE MORE THAN ONE CELL
<<<<<<< Updated upstream
 = 0.1633    (WHEN MIN. R.F.=1)  AT K=   3, I=   2, J=  29

 MAXIMUM STEPSIZE WHICH MEETS STABILITY CRITERION OF THE ADVECTION TERM
 (FOR PURE FINITE-DIFFERENCE OPTION, MIXELM=0) 
 = 0.1132    (WHEN MIN. R.F.=1)  AT K=   3, I=   2, J=  28
=======
 = 0.1869    (WHEN MIN. R.F.=1)  AT K=   3, I=   2, J=  31

 MAXIMUM STEPSIZE WHICH MEETS STABILITY CRITERION OF THE ADVECTION TERM
 (FOR PURE FINITE-DIFFERENCE OPTION, MIXELM=0) 
 = 0.1248    (WHEN MIN. R.F.=1)  AT K=   3, I=   2, J=  30
>>>>>>> Stashed changes


 TOTAL NUMBER OF POINT SOURCES/SINKS PRESENT IN THE FLOW MODEL =   240

 MAXIMUM STEPSIZE WHICH MEETS STABILITY CRITERION OF THE SINK & SOURCE TERM
 = 0.1000E+31(WHEN MIN. R.F.=1)  AT K=   0, I=   0, J=   0

 MAXIMUM STEPSIZE WHICH MEETS STABILITY CRITERION OF THE DISPERSION TERM
<<<<<<< Updated upstream
 = 0.6196E-02(WHEN MIN. R.F.=1)  AT K=   3, I=   2, J=  31
     1 CALLS TO GCG PACKAGE FOR TRANSPORT TIME STEP   9 IN FLOW TIME STEP  65 STRESS PERIOD   2
     6 TOTAL ITERATIONS
  MAXIMUM CONCENTRATION CHANGES FOR EACH ITERATION:
  MAX. CHANGE LAYER,ROW,COL MAX. CHANGE LAYER,ROW,COL MAX. CHANGE LAYER,ROW,COL MAX. CHANGE LAYER,ROW,COL MAX. CHANGE LAYER,ROW,COL
 ------------------------------------------------------------------------------------------------------------------------------------
   0.1489E-03 ( 14,  3, 52)  0.6604E-05 (  5,  2, 64)  0.1280E-05 (  6,  1, 56)  0.2128E-06 (  4,  3, 28)  0.1198E-06 (  3,  3, 30)
   0.5230E-07 (  4,  3, 28)


                                          ================================================
                                                         FROM TIME =   66.000     TO    67.000    

=======
 = 0.6699E-02(WHEN MIN. R.F.=1)  AT K=   3, I=   2, J=  30
     1 CALLS TO GCG PACKAGE FOR TRANSPORT TIME STEP   4 IN FLOW TIME STEP  62 STRESS PERIOD   2
    15 TOTAL ITERATIONS
>>>>>>> Stashed changes
 
 SOLVING FOR HEAD 
 FLOW MODEL IS TRANSIENT
 FLOW MODEL CONTAINS CONSTANT-HEAD CELLS


 MAXIMUM STEPSIZE DURING WHICH ANY PARTICLE CANNOT MOVE MORE THAN ONE CELL
<<<<<<< Updated upstream
 = 0.1633    (WHEN MIN. R.F.=1)  AT K=   3, I=   2, J=  29

 MAXIMUM STEPSIZE WHICH MEETS STABILITY CRITERION OF THE ADVECTION TERM
 (FOR PURE FINITE-DIFFERENCE OPTION, MIXELM=0) 
 = 0.1132    (WHEN MIN. R.F.=1)  AT K=   3, I=   2, J=  28
=======
 = 0.1869    (WHEN MIN. R.F.=1)  AT K=   3, I=   2, J=  31

 MAXIMUM STEPSIZE WHICH MEETS STABILITY CRITERION OF THE ADVECTION TERM
 (FOR PURE FINITE-DIFFERENCE OPTION, MIXELM=0) 
 = 0.1248    (WHEN MIN. R.F.=1)  AT K=   3, I=   2, J=  30
>>>>>>> Stashed changes


 TOTAL NUMBER OF POINT SOURCES/SINKS PRESENT IN THE FLOW MODEL =   240

 MAXIMUM STEPSIZE WHICH MEETS STABILITY CRITERION OF THE SINK & SOURCE TERM
 = 0.1000E+31(WHEN MIN. R.F.=1)  AT K=   0, I=   0, J=   0

 MAXIMUM STEPSIZE WHICH MEETS STABILITY CRITERION OF THE DISPERSION TERM
<<<<<<< Updated upstream
 = 0.6196E-02(WHEN MIN. R.F.=1)  AT K=   3, I=   2, J=  31


     1 CALLS TO GCG PACKAGE FOR TRANSPORT TIME STEP   1 IN FLOW TIME STEP  66 STRESS PERIOD   2
    14 TOTAL ITERATIONS

 NO OUTPUT CONTROL FOR STRESS PERIOD    2   TIME STEP  66
=======
 = 0.6698E-02(WHEN MIN. R.F.=1)  AT K=   3, I=   2, J=  30
     1 CALLS TO GCG PACKAGE FOR TRANSPORT TIME STEP   5 IN FLOW TIME STEP  62 STRESS PERIOD   2
    15 TOTAL ITERATIONS
>>>>>>> Stashed changes
 
 SOLVING FOR HEAD 
 FLOW MODEL IS TRANSIENT
 FLOW MODEL CONTAINS CONSTANT-HEAD CELLS


 MAXIMUM STEPSIZE DURING WHICH ANY PARTICLE CANNOT MOVE MORE THAN ONE CELL
<<<<<<< Updated upstream
 = 0.1633    (WHEN MIN. R.F.=1)  AT K=   3, I=   2, J=  29

 MAXIMUM STEPSIZE WHICH MEETS STABILITY CRITERION OF THE ADVECTION TERM
 (FOR PURE FINITE-DIFFERENCE OPTION, MIXELM=0) 
 = 0.1132    (WHEN MIN. R.F.=1)  AT K=   3, I=   2, J=  28
=======
 = 0.1869    (WHEN MIN. R.F.=1)  AT K=   3, I=   2, J=  31

 MAXIMUM STEPSIZE WHICH MEETS STABILITY CRITERION OF THE ADVECTION TERM
 (FOR PURE FINITE-DIFFERENCE OPTION, MIXELM=0) 
 = 0.1248    (WHEN MIN. R.F.=1)  AT K=   3, I=   2, J=  30
>>>>>>> Stashed changes


 TOTAL NUMBER OF POINT SOURCES/SINKS PRESENT IN THE FLOW MODEL =   240

 MAXIMUM STEPSIZE WHICH MEETS STABILITY CRITERION OF THE SINK & SOURCE TERM
 = 0.1000E+31(WHEN MIN. R.F.=1)  AT K=   0, I=   0, J=   0

 MAXIMUM STEPSIZE WHICH MEETS STABILITY CRITERION OF THE DISPERSION TERM
<<<<<<< Updated upstream
 = 0.6196E-02(WHEN MIN. R.F.=1)  AT K=   3, I=   2, J=  31
     1 CALLS TO GCG PACKAGE FOR TRANSPORT TIME STEP   2 IN FLOW TIME STEP  66 STRESS PERIOD   2
    14 TOTAL ITERATIONS
=======
 = 0.6698E-02(WHEN MIN. R.F.=1)  AT K=   3, I=   2, J=  30
     1 CALLS TO GCG PACKAGE FOR TRANSPORT TIME STEP   6 IN FLOW TIME STEP  62 STRESS PERIOD   2
    15 TOTAL ITERATIONS
>>>>>>> Stashed changes
 
 SOLVING FOR HEAD 
 FLOW MODEL IS TRANSIENT
 FLOW MODEL CONTAINS CONSTANT-HEAD CELLS


 MAXIMUM STEPSIZE DURING WHICH ANY PARTICLE CANNOT MOVE MORE THAN ONE CELL
<<<<<<< Updated upstream
 = 0.1633    (WHEN MIN. R.F.=1)  AT K=   3, I=   2, J=  29

 MAXIMUM STEPSIZE WHICH MEETS STABILITY CRITERION OF THE ADVECTION TERM
 (FOR PURE FINITE-DIFFERENCE OPTION, MIXELM=0) 
 = 0.1132    (WHEN MIN. R.F.=1)  AT K=   3, I=   2, J=  28
=======
 = 0.1869    (WHEN MIN. R.F.=1)  AT K=   3, I=   2, J=  31

 MAXIMUM STEPSIZE WHICH MEETS STABILITY CRITERION OF THE ADVECTION TERM
 (FOR PURE FINITE-DIFFERENCE OPTION, MIXELM=0) 
 = 0.1248    (WHEN MIN. R.F.=1)  AT K=   3, I=   2, J=  30
>>>>>>> Stashed changes


 TOTAL NUMBER OF POINT SOURCES/SINKS PRESENT IN THE FLOW MODEL =   240

 MAXIMUM STEPSIZE WHICH MEETS STABILITY CRITERION OF THE SINK & SOURCE TERM
 = 0.1000E+31(WHEN MIN. R.F.=1)  AT K=   0, I=   0, J=   0

 MAXIMUM STEPSIZE WHICH MEETS STABILITY CRITERION OF THE DISPERSION TERM
<<<<<<< Updated upstream
 = 0.6196E-02(WHEN MIN. R.F.=1)  AT K=   3, I=   2, J=  31
     1 CALLS TO GCG PACKAGE FOR TRANSPORT TIME STEP   3 IN FLOW TIME STEP  66 STRESS PERIOD   2
    14 TOTAL ITERATIONS
=======
 = 0.6698E-02(WHEN MIN. R.F.=1)  AT K=   3, I=   2, J=  30
     1 CALLS TO GCG PACKAGE FOR TRANSPORT TIME STEP   7 IN FLOW TIME STEP  62 STRESS PERIOD   2
    15 TOTAL ITERATIONS
>>>>>>> Stashed changes
 
 SOLVING FOR HEAD 
 FLOW MODEL IS TRANSIENT
 FLOW MODEL CONTAINS CONSTANT-HEAD CELLS


 MAXIMUM STEPSIZE DURING WHICH ANY PARTICLE CANNOT MOVE MORE THAN ONE CELL
<<<<<<< Updated upstream
 = 0.1633    (WHEN MIN. R.F.=1)  AT K=   3, I=   2, J=  29

 MAXIMUM STEPSIZE WHICH MEETS STABILITY CRITERION OF THE ADVECTION TERM
 (FOR PURE FINITE-DIFFERENCE OPTION, MIXELM=0) 
 = 0.1132    (WHEN MIN. R.F.=1)  AT K=   3, I=   2, J=  28
=======
 = 0.1869    (WHEN MIN. R.F.=1)  AT K=   3, I=   2, J=  31

 MAXIMUM STEPSIZE WHICH MEETS STABILITY CRITERION OF THE ADVECTION TERM
 (FOR PURE FINITE-DIFFERENCE OPTION, MIXELM=0) 
 = 0.1248    (WHEN MIN. R.F.=1)  AT K=   3, I=   2, J=  30
>>>>>>> Stashed changes


 TOTAL NUMBER OF POINT SOURCES/SINKS PRESENT IN THE FLOW MODEL =   240

 MAXIMUM STEPSIZE WHICH MEETS STABILITY CRITERION OF THE SINK & SOURCE TERM
 = 0.1000E+31(WHEN MIN. R.F.=1)  AT K=   0, I=   0, J=   0

 MAXIMUM STEPSIZE WHICH MEETS STABILITY CRITERION OF THE DISPERSION TERM
<<<<<<< Updated upstream
 = 0.6196E-02(WHEN MIN. R.F.=1)  AT K=   3, I=   2, J=  31
     1 CALLS TO GCG PACKAGE FOR TRANSPORT TIME STEP   4 IN FLOW TIME STEP  66 STRESS PERIOD   2
    14 TOTAL ITERATIONS
=======
 = 0.6698E-02(WHEN MIN. R.F.=1)  AT K=   3, I=   2, J=  30
     1 CALLS TO GCG PACKAGE FOR TRANSPORT TIME STEP   8 IN FLOW TIME STEP  62 STRESS PERIOD   2
     5 TOTAL ITERATIONS
  MAXIMUM CONCENTRATION CHANGES FOR EACH ITERATION:
  MAX. CHANGE LAYER,ROW,COL MAX. CHANGE LAYER,ROW,COL MAX. CHANGE LAYER,ROW,COL MAX. CHANGE LAYER,ROW,COL MAX. CHANGE LAYER,ROW,COL
 ------------------------------------------------------------------------------------------------------------------------------------
   0.1463E-03 ( 17,  1, 51)  0.4488E-05 (  5,  2, 62)  0.8580E-06 (  4,  2, 44)  0.2960E-06 (  3,  2, 37)  0.8813E-07 (  4,  2, 31)
 UBDSV1 SAVING "         STORAGE" ON UNIT  53 AT TIME STEP 62, STRESS PERIOD   2
 UBDSV2 SAVING "   CONSTANT HEAD" ON UNIT  53 AT TIME STEP 62, STRESS PERIOD   2
 UBDSV1 SAVING "FLOW RIGHT FACE " ON UNIT  53 AT TIME STEP 62, STRESS PERIOD   2
 UBDSV1 SAVING "FLOW FRONT FACE " ON UNIT  53 AT TIME STEP 62, STRESS PERIOD   2
 UBDSV1 SAVING "FLOW LOWER FACE " ON UNIT  53 AT TIME STEP 62, STRESS PERIOD   2
 UBDSV1 SAVING "            DCDT" ON UNIT  53 AT TIME STEP 62, STRESS PERIOD   2

 HEAD WILL BE SAVED ON UNIT   51 AT END OF TIME STEP  62, STRESS PERIOD    2


                                          ================================================
                                                         FROM TIME =   63.000     TO    64.000    

>>>>>>> Stashed changes
 
 SOLVING FOR HEAD 
 FLOW MODEL IS TRANSIENT
 FLOW MODEL CONTAINS CONSTANT-HEAD CELLS


 MAXIMUM STEPSIZE DURING WHICH ANY PARTICLE CANNOT MOVE MORE THAN ONE CELL
<<<<<<< Updated upstream
 = 0.1633    (WHEN MIN. R.F.=1)  AT K=   3, I=   2, J=  29

 MAXIMUM STEPSIZE WHICH MEETS STABILITY CRITERION OF THE ADVECTION TERM
 (FOR PURE FINITE-DIFFERENCE OPTION, MIXELM=0) 
 = 0.1132    (WHEN MIN. R.F.=1)  AT K=   3, I=   2, J=  28
=======
 = 0.1869    (WHEN MIN. R.F.=1)  AT K=   3, I=   2, J=  31

 MAXIMUM STEPSIZE WHICH MEETS STABILITY CRITERION OF THE ADVECTION TERM
 (FOR PURE FINITE-DIFFERENCE OPTION, MIXELM=0) 
 = 0.1248    (WHEN MIN. R.F.=1)  AT K=   3, I=   2, J=  30
>>>>>>> Stashed changes


 TOTAL NUMBER OF POINT SOURCES/SINKS PRESENT IN THE FLOW MODEL =   240

 MAXIMUM STEPSIZE WHICH MEETS STABILITY CRITERION OF THE SINK & SOURCE TERM
 = 0.1000E+31(WHEN MIN. R.F.=1)  AT K=   0, I=   0, J=   0

 MAXIMUM STEPSIZE WHICH MEETS STABILITY CRITERION OF THE DISPERSION TERM
<<<<<<< Updated upstream
 = 0.6196E-02(WHEN MIN. R.F.=1)  AT K=   3, I=   2, J=  31
     1 CALLS TO GCG PACKAGE FOR TRANSPORT TIME STEP   5 IN FLOW TIME STEP  66 STRESS PERIOD   2
    14 TOTAL ITERATIONS
=======
 = 0.6698E-02(WHEN MIN. R.F.=1)  AT K=   3, I=   2, J=  30


     1 CALLS TO GCG PACKAGE FOR TRANSPORT TIME STEP   1 IN FLOW TIME STEP  63 STRESS PERIOD   2
    15 TOTAL ITERATIONS

 OUTPUT CONTROL FOR STRESS PERIOD    2   TIME STEP  63
    SAVE HEAD FOR ALL LAYERS
    SAVE BUDGET
>>>>>>> Stashed changes
 
 SOLVING FOR HEAD 
 FLOW MODEL IS TRANSIENT
 FLOW MODEL CONTAINS CONSTANT-HEAD CELLS


 MAXIMUM STEPSIZE DURING WHICH ANY PARTICLE CANNOT MOVE MORE THAN ONE CELL
<<<<<<< Updated upstream
 = 0.1633    (WHEN MIN. R.F.=1)  AT K=   3, I=   2, J=  29

 MAXIMUM STEPSIZE WHICH MEETS STABILITY CRITERION OF THE ADVECTION TERM
 (FOR PURE FINITE-DIFFERENCE OPTION, MIXELM=0) 
 = 0.1132    (WHEN MIN. R.F.=1)  AT K=   3, I=   2, J=  28
=======
 = 0.1869    (WHEN MIN. R.F.=1)  AT K=   3, I=   2, J=  31

 MAXIMUM STEPSIZE WHICH MEETS STABILITY CRITERION OF THE ADVECTION TERM
 (FOR PURE FINITE-DIFFERENCE OPTION, MIXELM=0) 
 = 0.1248    (WHEN MIN. R.F.=1)  AT K=   3, I=   2, J=  30
>>>>>>> Stashed changes


 TOTAL NUMBER OF POINT SOURCES/SINKS PRESENT IN THE FLOW MODEL =   240

 MAXIMUM STEPSIZE WHICH MEETS STABILITY CRITERION OF THE SINK & SOURCE TERM
 = 0.1000E+31(WHEN MIN. R.F.=1)  AT K=   0, I=   0, J=   0

 MAXIMUM STEPSIZE WHICH MEETS STABILITY CRITERION OF THE DISPERSION TERM
<<<<<<< Updated upstream
 = 0.6196E-02(WHEN MIN. R.F.=1)  AT K=   3, I=   2, J=  31
     1 CALLS TO GCG PACKAGE FOR TRANSPORT TIME STEP   6 IN FLOW TIME STEP  66 STRESS PERIOD   2
    14 TOTAL ITERATIONS
 
 SOLVING FOR HEAD 
 FLOW MODEL IS TRANSIENT
 FLOW MODEL CONTAINS CONSTANT-HEAD CELLS


 MAXIMUM STEPSIZE DURING WHICH ANY PARTICLE CANNOT MOVE MORE THAN ONE CELL
 = 0.1633    (WHEN MIN. R.F.=1)  AT K=   3, I=   2, J=  29

 MAXIMUM STEPSIZE WHICH MEETS STABILITY CRITERION OF THE ADVECTION TERM
 (FOR PURE FINITE-DIFFERENCE OPTION, MIXELM=0) 
 = 0.1132    (WHEN MIN. R.F.=1)  AT K=   3, I=   2, J=  28


 TOTAL NUMBER OF POINT SOURCES/SINKS PRESENT IN THE FLOW MODEL =   240

 MAXIMUM STEPSIZE WHICH MEETS STABILITY CRITERION OF THE SINK & SOURCE TERM
 = 0.1000E+31(WHEN MIN. R.F.=1)  AT K=   0, I=   0, J=   0

 MAXIMUM STEPSIZE WHICH MEETS STABILITY CRITERION OF THE DISPERSION TERM
 = 0.6196E-02(WHEN MIN. R.F.=1)  AT K=   3, I=   2, J=  31
     1 CALLS TO GCG PACKAGE FOR TRANSPORT TIME STEP   7 IN FLOW TIME STEP  66 STRESS PERIOD   2
    14 TOTAL ITERATIONS
=======
 = 0.6698E-02(WHEN MIN. R.F.=1)  AT K=   3, I=   2, J=  30
     1 CALLS TO GCG PACKAGE FOR TRANSPORT TIME STEP   2 IN FLOW TIME STEP  63 STRESS PERIOD   2
    15 TOTAL ITERATIONS
>>>>>>> Stashed changes
 
 SOLVING FOR HEAD 
 FLOW MODEL IS TRANSIENT
 FLOW MODEL CONTAINS CONSTANT-HEAD CELLS


 MAXIMUM STEPSIZE DURING WHICH ANY PARTICLE CANNOT MOVE MORE THAN ONE CELL
<<<<<<< Updated upstream
 = 0.1633    (WHEN MIN. R.F.=1)  AT K=   3, I=   2, J=  29

 MAXIMUM STEPSIZE WHICH MEETS STABILITY CRITERION OF THE ADVECTION TERM
 (FOR PURE FINITE-DIFFERENCE OPTION, MIXELM=0) 
 = 0.1132    (WHEN MIN. R.F.=1)  AT K=   3, I=   2, J=  28
=======
 = 0.1869    (WHEN MIN. R.F.=1)  AT K=   3, I=   2, J=  31

 MAXIMUM STEPSIZE WHICH MEETS STABILITY CRITERION OF THE ADVECTION TERM
 (FOR PURE FINITE-DIFFERENCE OPTION, MIXELM=0) 
 = 0.1248    (WHEN MIN. R.F.=1)  AT K=   3, I=   2, J=  30
>>>>>>> Stashed changes


 TOTAL NUMBER OF POINT SOURCES/SINKS PRESENT IN THE FLOW MODEL =   240

 MAXIMUM STEPSIZE WHICH MEETS STABILITY CRITERION OF THE SINK & SOURCE TERM
 = 0.1000E+31(WHEN MIN. R.F.=1)  AT K=   0, I=   0, J=   0

 MAXIMUM STEPSIZE WHICH MEETS STABILITY CRITERION OF THE DISPERSION TERM
<<<<<<< Updated upstream
 = 0.6196E-02(WHEN MIN. R.F.=1)  AT K=   3, I=   2, J=  31
     1 CALLS TO GCG PACKAGE FOR TRANSPORT TIME STEP   8 IN FLOW TIME STEP  66 STRESS PERIOD   2
    14 TOTAL ITERATIONS
=======
 = 0.6698E-02(WHEN MIN. R.F.=1)  AT K=   3, I=   2, J=  30
     1 CALLS TO GCG PACKAGE FOR TRANSPORT TIME STEP   3 IN FLOW TIME STEP  63 STRESS PERIOD   2
    15 TOTAL ITERATIONS
>>>>>>> Stashed changes
 
 SOLVING FOR HEAD 
 FLOW MODEL IS TRANSIENT
 FLOW MODEL CONTAINS CONSTANT-HEAD CELLS


 MAXIMUM STEPSIZE DURING WHICH ANY PARTICLE CANNOT MOVE MORE THAN ONE CELL
<<<<<<< Updated upstream
 = 0.1633    (WHEN MIN. R.F.=1)  AT K=   3, I=   2, J=  29

 MAXIMUM STEPSIZE WHICH MEETS STABILITY CRITERION OF THE ADVECTION TERM
 (FOR PURE FINITE-DIFFERENCE OPTION, MIXELM=0) 
 = 0.1132    (WHEN MIN. R.F.=1)  AT K=   3, I=   2, J=  28
=======
 = 0.1869    (WHEN MIN. R.F.=1)  AT K=   3, I=   2, J=  31

 MAXIMUM STEPSIZE WHICH MEETS STABILITY CRITERION OF THE ADVECTION TERM
 (FOR PURE FINITE-DIFFERENCE OPTION, MIXELM=0) 
 = 0.1248    (WHEN MIN. R.F.=1)  AT K=   3, I=   2, J=  30
>>>>>>> Stashed changes


 TOTAL NUMBER OF POINT SOURCES/SINKS PRESENT IN THE FLOW MODEL =   240

 MAXIMUM STEPSIZE WHICH MEETS STABILITY CRITERION OF THE SINK & SOURCE TERM
 = 0.1000E+31(WHEN MIN. R.F.=1)  AT K=   0, I=   0, J=   0

 MAXIMUM STEPSIZE WHICH MEETS STABILITY CRITERION OF THE DISPERSION TERM
<<<<<<< Updated upstream
 = 0.6196E-02(WHEN MIN. R.F.=1)  AT K=   3, I=   2, J=  31
     1 CALLS TO GCG PACKAGE FOR TRANSPORT TIME STEP   9 IN FLOW TIME STEP  66 STRESS PERIOD   2
     6 TOTAL ITERATIONS
  MAXIMUM CONCENTRATION CHANGES FOR EACH ITERATION:
  MAX. CHANGE LAYER,ROW,COL MAX. CHANGE LAYER,ROW,COL MAX. CHANGE LAYER,ROW,COL MAX. CHANGE LAYER,ROW,COL MAX. CHANGE LAYER,ROW,COL
 ------------------------------------------------------------------------------------------------------------------------------------
   0.1480E-03 ( 14,  3, 52)  0.6421E-05 (  5,  2, 64)  0.1239E-05 (  6,  1, 56)  0.1992E-06 (  4,  2, 46)  0.1125E-06 (  3,  3, 30)
   0.4916E-07 (  4,  3, 28)


                                          ================================================
                                                         FROM TIME =   67.000     TO    68.000    

=======
 = 0.6698E-02(WHEN MIN. R.F.=1)  AT K=   3, I=   2, J=  30
     1 CALLS TO GCG PACKAGE FOR TRANSPORT TIME STEP   4 IN FLOW TIME STEP  63 STRESS PERIOD   2
    15 TOTAL ITERATIONS
>>>>>>> Stashed changes
 
 SOLVING FOR HEAD 
 FLOW MODEL IS TRANSIENT
 FLOW MODEL CONTAINS CONSTANT-HEAD CELLS


 MAXIMUM STEPSIZE DURING WHICH ANY PARTICLE CANNOT MOVE MORE THAN ONE CELL
<<<<<<< Updated upstream
 = 0.1633    (WHEN MIN. R.F.=1)  AT K=   3, I=   2, J=  29

 MAXIMUM STEPSIZE WHICH MEETS STABILITY CRITERION OF THE ADVECTION TERM
 (FOR PURE FINITE-DIFFERENCE OPTION, MIXELM=0) 
 = 0.1132    (WHEN MIN. R.F.=1)  AT K=   3, I=   2, J=  28
=======
 = 0.1869    (WHEN MIN. R.F.=1)  AT K=   3, I=   2, J=  31

 MAXIMUM STEPSIZE WHICH MEETS STABILITY CRITERION OF THE ADVECTION TERM
 (FOR PURE FINITE-DIFFERENCE OPTION, MIXELM=0) 
 = 0.1248    (WHEN MIN. R.F.=1)  AT K=   3, I=   2, J=  30
>>>>>>> Stashed changes


 TOTAL NUMBER OF POINT SOURCES/SINKS PRESENT IN THE FLOW MODEL =   240

 MAXIMUM STEPSIZE WHICH MEETS STABILITY CRITERION OF THE SINK & SOURCE TERM
 = 0.1000E+31(WHEN MIN. R.F.=1)  AT K=   0, I=   0, J=   0

 MAXIMUM STEPSIZE WHICH MEETS STABILITY CRITERION OF THE DISPERSION TERM
<<<<<<< Updated upstream
 = 0.6196E-02(WHEN MIN. R.F.=1)  AT K=   3, I=   2, J=  31


     1 CALLS TO GCG PACKAGE FOR TRANSPORT TIME STEP   1 IN FLOW TIME STEP  67 STRESS PERIOD   2
    14 TOTAL ITERATIONS

 NO OUTPUT CONTROL FOR STRESS PERIOD    2   TIME STEP  67
=======
 = 0.6698E-02(WHEN MIN. R.F.=1)  AT K=   3, I=   2, J=  30
     1 CALLS TO GCG PACKAGE FOR TRANSPORT TIME STEP   5 IN FLOW TIME STEP  63 STRESS PERIOD   2
    15 TOTAL ITERATIONS
>>>>>>> Stashed changes
 
 SOLVING FOR HEAD 
 FLOW MODEL IS TRANSIENT
 FLOW MODEL CONTAINS CONSTANT-HEAD CELLS


 MAXIMUM STEPSIZE DURING WHICH ANY PARTICLE CANNOT MOVE MORE THAN ONE CELL
<<<<<<< Updated upstream
 = 0.1633    (WHEN MIN. R.F.=1)  AT K=   3, I=   2, J=  29

 MAXIMUM STEPSIZE WHICH MEETS STABILITY CRITERION OF THE ADVECTION TERM
 (FOR PURE FINITE-DIFFERENCE OPTION, MIXELM=0) 
 = 0.1132    (WHEN MIN. R.F.=1)  AT K=   3, I=   2, J=  28
=======
 = 0.1869    (WHEN MIN. R.F.=1)  AT K=   3, I=   2, J=  31

 MAXIMUM STEPSIZE WHICH MEETS STABILITY CRITERION OF THE ADVECTION TERM
 (FOR PURE FINITE-DIFFERENCE OPTION, MIXELM=0) 
 = 0.1248    (WHEN MIN. R.F.=1)  AT K=   3, I=   2, J=  30
>>>>>>> Stashed changes


 TOTAL NUMBER OF POINT SOURCES/SINKS PRESENT IN THE FLOW MODEL =   240

 MAXIMUM STEPSIZE WHICH MEETS STABILITY CRITERION OF THE SINK & SOURCE TERM
 = 0.1000E+31(WHEN MIN. R.F.=1)  AT K=   0, I=   0, J=   0

 MAXIMUM STEPSIZE WHICH MEETS STABILITY CRITERION OF THE DISPERSION TERM
<<<<<<< Updated upstream
 = 0.6196E-02(WHEN MIN. R.F.=1)  AT K=   3, I=   2, J=  31
     1 CALLS TO GCG PACKAGE FOR TRANSPORT TIME STEP   2 IN FLOW TIME STEP  67 STRESS PERIOD   2
    14 TOTAL ITERATIONS
=======
 = 0.6698E-02(WHEN MIN. R.F.=1)  AT K=   3, I=   2, J=  30
     1 CALLS TO GCG PACKAGE FOR TRANSPORT TIME STEP   6 IN FLOW TIME STEP  63 STRESS PERIOD   2
    15 TOTAL ITERATIONS
>>>>>>> Stashed changes
 
 SOLVING FOR HEAD 
 FLOW MODEL IS TRANSIENT
 FLOW MODEL CONTAINS CONSTANT-HEAD CELLS


 MAXIMUM STEPSIZE DURING WHICH ANY PARTICLE CANNOT MOVE MORE THAN ONE CELL
<<<<<<< Updated upstream
 = 0.1633    (WHEN MIN. R.F.=1)  AT K=   3, I=   2, J=  29

 MAXIMUM STEPSIZE WHICH MEETS STABILITY CRITERION OF THE ADVECTION TERM
 (FOR PURE FINITE-DIFFERENCE OPTION, MIXELM=0) 
 = 0.1132    (WHEN MIN. R.F.=1)  AT K=   3, I=   2, J=  28
=======
 = 0.1869    (WHEN MIN. R.F.=1)  AT K=   3, I=   2, J=  31

 MAXIMUM STEPSIZE WHICH MEETS STABILITY CRITERION OF THE ADVECTION TERM
 (FOR PURE FINITE-DIFFERENCE OPTION, MIXELM=0) 
 = 0.1248    (WHEN MIN. R.F.=1)  AT K=   3, I=   2, J=  30
>>>>>>> Stashed changes


 TOTAL NUMBER OF POINT SOURCES/SINKS PRESENT IN THE FLOW MODEL =   240

 MAXIMUM STEPSIZE WHICH MEETS STABILITY CRITERION OF THE SINK & SOURCE TERM
 = 0.1000E+31(WHEN MIN. R.F.=1)  AT K=   0, I=   0, J=   0

 MAXIMUM STEPSIZE WHICH MEETS STABILITY CRITERION OF THE DISPERSION TERM
<<<<<<< Updated upstream
 = 0.6196E-02(WHEN MIN. R.F.=1)  AT K=   3, I=   2, J=  31
     1 CALLS TO GCG PACKAGE FOR TRANSPORT TIME STEP   3 IN FLOW TIME STEP  67 STRESS PERIOD   2
    14 TOTAL ITERATIONS
=======
 = 0.6698E-02(WHEN MIN. R.F.=1)  AT K=   3, I=   2, J=  30
     1 CALLS TO GCG PACKAGE FOR TRANSPORT TIME STEP   7 IN FLOW TIME STEP  63 STRESS PERIOD   2
    15 TOTAL ITERATIONS
>>>>>>> Stashed changes
 
 SOLVING FOR HEAD 
 FLOW MODEL IS TRANSIENT
 FLOW MODEL CONTAINS CONSTANT-HEAD CELLS


 MAXIMUM STEPSIZE DURING WHICH ANY PARTICLE CANNOT MOVE MORE THAN ONE CELL
<<<<<<< Updated upstream
 = 0.1633    (WHEN MIN. R.F.=1)  AT K=   3, I=   2, J=  29

 MAXIMUM STEPSIZE WHICH MEETS STABILITY CRITERION OF THE ADVECTION TERM
 (FOR PURE FINITE-DIFFERENCE OPTION, MIXELM=0) 
 = 0.1132    (WHEN MIN. R.F.=1)  AT K=   3, I=   2, J=  28
=======
 = 0.1869    (WHEN MIN. R.F.=1)  AT K=   3, I=   2, J=  31

 MAXIMUM STEPSIZE WHICH MEETS STABILITY CRITERION OF THE ADVECTION TERM
 (FOR PURE FINITE-DIFFERENCE OPTION, MIXELM=0) 
 = 0.1248    (WHEN MIN. R.F.=1)  AT K=   3, I=   2, J=  30
>>>>>>> Stashed changes


 TOTAL NUMBER OF POINT SOURCES/SINKS PRESENT IN THE FLOW MODEL =   240

 MAXIMUM STEPSIZE WHICH MEETS STABILITY CRITERION OF THE SINK & SOURCE TERM
 = 0.1000E+31(WHEN MIN. R.F.=1)  AT K=   0, I=   0, J=   0

 MAXIMUM STEPSIZE WHICH MEETS STABILITY CRITERION OF THE DISPERSION TERM
<<<<<<< Updated upstream
 = 0.6196E-02(WHEN MIN. R.F.=1)  AT K=   3, I=   2, J=  31
     1 CALLS TO GCG PACKAGE FOR TRANSPORT TIME STEP   4 IN FLOW TIME STEP  67 STRESS PERIOD   2
    14 TOTAL ITERATIONS
=======
 = 0.6698E-02(WHEN MIN. R.F.=1)  AT K=   3, I=   2, J=  30
     1 CALLS TO GCG PACKAGE FOR TRANSPORT TIME STEP   8 IN FLOW TIME STEP  63 STRESS PERIOD   2
     5 TOTAL ITERATIONS
  MAXIMUM CONCENTRATION CHANGES FOR EACH ITERATION:
  MAX. CHANGE LAYER,ROW,COL MAX. CHANGE LAYER,ROW,COL MAX. CHANGE LAYER,ROW,COL MAX. CHANGE LAYER,ROW,COL MAX. CHANGE LAYER,ROW,COL
 ------------------------------------------------------------------------------------------------------------------------------------
   0.1458E-03 ( 17,  1, 51)  0.4353E-05 (  5,  2, 62)  0.8176E-06 (  4,  2, 44)  0.2805E-06 (  3,  2, 37)  0.8419E-07 (  4,  2, 31)
 UBDSV1 SAVING "         STORAGE" ON UNIT  53 AT TIME STEP 63, STRESS PERIOD   2
 UBDSV2 SAVING "   CONSTANT HEAD" ON UNIT  53 AT TIME STEP 63, STRESS PERIOD   2
 UBDSV1 SAVING "FLOW RIGHT FACE " ON UNIT  53 AT TIME STEP 63, STRESS PERIOD   2
 UBDSV1 SAVING "FLOW FRONT FACE " ON UNIT  53 AT TIME STEP 63, STRESS PERIOD   2
 UBDSV1 SAVING "FLOW LOWER FACE " ON UNIT  53 AT TIME STEP 63, STRESS PERIOD   2
 UBDSV1 SAVING "            DCDT" ON UNIT  53 AT TIME STEP 63, STRESS PERIOD   2

 HEAD WILL BE SAVED ON UNIT   51 AT END OF TIME STEP  63, STRESS PERIOD    2


                                          ================================================
                                                         FROM TIME =   64.000     TO    65.000    

>>>>>>> Stashed changes
 
 SOLVING FOR HEAD 
 FLOW MODEL IS TRANSIENT
 FLOW MODEL CONTAINS CONSTANT-HEAD CELLS


 MAXIMUM STEPSIZE DURING WHICH ANY PARTICLE CANNOT MOVE MORE THAN ONE CELL
<<<<<<< Updated upstream
 = 0.1633    (WHEN MIN. R.F.=1)  AT K=   3, I=   2, J=  29

 MAXIMUM STEPSIZE WHICH MEETS STABILITY CRITERION OF THE ADVECTION TERM
 (FOR PURE FINITE-DIFFERENCE OPTION, MIXELM=0) 
 = 0.1132    (WHEN MIN. R.F.=1)  AT K=   3, I=   2, J=  28
=======
 = 0.1869    (WHEN MIN. R.F.=1)  AT K=   3, I=   2, J=  31

 MAXIMUM STEPSIZE WHICH MEETS STABILITY CRITERION OF THE ADVECTION TERM
 (FOR PURE FINITE-DIFFERENCE OPTION, MIXELM=0) 
 = 0.1248    (WHEN MIN. R.F.=1)  AT K=   3, I=   2, J=  30
>>>>>>> Stashed changes


 TOTAL NUMBER OF POINT SOURCES/SINKS PRESENT IN THE FLOW MODEL =   240

 MAXIMUM STEPSIZE WHICH MEETS STABILITY CRITERION OF THE SINK & SOURCE TERM
 = 0.1000E+31(WHEN MIN. R.F.=1)  AT K=   0, I=   0, J=   0

 MAXIMUM STEPSIZE WHICH MEETS STABILITY CRITERION OF THE DISPERSION TERM
<<<<<<< Updated upstream
 = 0.6196E-02(WHEN MIN. R.F.=1)  AT K=   3, I=   2, J=  31
     1 CALLS TO GCG PACKAGE FOR TRANSPORT TIME STEP   5 IN FLOW TIME STEP  67 STRESS PERIOD   2
    14 TOTAL ITERATIONS
=======
 = 0.6698E-02(WHEN MIN. R.F.=1)  AT K=   3, I=   2, J=  30


     1 CALLS TO GCG PACKAGE FOR TRANSPORT TIME STEP   1 IN FLOW TIME STEP  64 STRESS PERIOD   2
    15 TOTAL ITERATIONS

 OUTPUT CONTROL FOR STRESS PERIOD    2   TIME STEP  64
    SAVE HEAD FOR ALL LAYERS
    SAVE BUDGET
>>>>>>> Stashed changes
 
 SOLVING FOR HEAD 
 FLOW MODEL IS TRANSIENT
 FLOW MODEL CONTAINS CONSTANT-HEAD CELLS


 MAXIMUM STEPSIZE DURING WHICH ANY PARTICLE CANNOT MOVE MORE THAN ONE CELL
<<<<<<< Updated upstream
 = 0.1633    (WHEN MIN. R.F.=1)  AT K=   3, I=   2, J=  29

 MAXIMUM STEPSIZE WHICH MEETS STABILITY CRITERION OF THE ADVECTION TERM
 (FOR PURE FINITE-DIFFERENCE OPTION, MIXELM=0) 
 = 0.1132    (WHEN MIN. R.F.=1)  AT K=   3, I=   2, J=  28
=======
 = 0.1869    (WHEN MIN. R.F.=1)  AT K=   3, I=   2, J=  31

 MAXIMUM STEPSIZE WHICH MEETS STABILITY CRITERION OF THE ADVECTION TERM
 (FOR PURE FINITE-DIFFERENCE OPTION, MIXELM=0) 
 = 0.1248    (WHEN MIN. R.F.=1)  AT K=   3, I=   2, J=  30
>>>>>>> Stashed changes


 TOTAL NUMBER OF POINT SOURCES/SINKS PRESENT IN THE FLOW MODEL =   240

 MAXIMUM STEPSIZE WHICH MEETS STABILITY CRITERION OF THE SINK & SOURCE TERM
 = 0.1000E+31(WHEN MIN. R.F.=1)  AT K=   0, I=   0, J=   0

 MAXIMUM STEPSIZE WHICH MEETS STABILITY CRITERION OF THE DISPERSION TERM
<<<<<<< Updated upstream
 = 0.6196E-02(WHEN MIN. R.F.=1)  AT K=   3, I=   2, J=  31
     1 CALLS TO GCG PACKAGE FOR TRANSPORT TIME STEP   6 IN FLOW TIME STEP  67 STRESS PERIOD   2
    14 TOTAL ITERATIONS
=======
 = 0.6698E-02(WHEN MIN. R.F.=1)  AT K=   3, I=   2, J=  30
     1 CALLS TO GCG PACKAGE FOR TRANSPORT TIME STEP   2 IN FLOW TIME STEP  64 STRESS PERIOD   2
    15 TOTAL ITERATIONS
>>>>>>> Stashed changes
 
 SOLVING FOR HEAD 
 FLOW MODEL IS TRANSIENT
 FLOW MODEL CONTAINS CONSTANT-HEAD CELLS


 MAXIMUM STEPSIZE DURING WHICH ANY PARTICLE CANNOT MOVE MORE THAN ONE CELL
<<<<<<< Updated upstream
 = 0.1633    (WHEN MIN. R.F.=1)  AT K=   3, I=   2, J=  29

 MAXIMUM STEPSIZE WHICH MEETS STABILITY CRITERION OF THE ADVECTION TERM
 (FOR PURE FINITE-DIFFERENCE OPTION, MIXELM=0) 
 = 0.1132    (WHEN MIN. R.F.=1)  AT K=   3, I=   2, J=  28
=======
 = 0.1869    (WHEN MIN. R.F.=1)  AT K=   3, I=   2, J=  31

 MAXIMUM STEPSIZE WHICH MEETS STABILITY CRITERION OF THE ADVECTION TERM
 (FOR PURE FINITE-DIFFERENCE OPTION, MIXELM=0) 
 = 0.1248    (WHEN MIN. R.F.=1)  AT K=   3, I=   2, J=  30
>>>>>>> Stashed changes


 TOTAL NUMBER OF POINT SOURCES/SINKS PRESENT IN THE FLOW MODEL =   240

 MAXIMUM STEPSIZE WHICH MEETS STABILITY CRITERION OF THE SINK & SOURCE TERM
 = 0.1000E+31(WHEN MIN. R.F.=1)  AT K=   0, I=   0, J=   0

 MAXIMUM STEPSIZE WHICH MEETS STABILITY CRITERION OF THE DISPERSION TERM
<<<<<<< Updated upstream
 = 0.6196E-02(WHEN MIN. R.F.=1)  AT K=   3, I=   2, J=  31
     1 CALLS TO GCG PACKAGE FOR TRANSPORT TIME STEP   7 IN FLOW TIME STEP  67 STRESS PERIOD   2
    14 TOTAL ITERATIONS
=======
 = 0.6698E-02(WHEN MIN. R.F.=1)  AT K=   3, I=   2, J=  30
     1 CALLS TO GCG PACKAGE FOR TRANSPORT TIME STEP   3 IN FLOW TIME STEP  64 STRESS PERIOD   2
    15 TOTAL ITERATIONS
>>>>>>> Stashed changes
 
 SOLVING FOR HEAD 
 FLOW MODEL IS TRANSIENT
 FLOW MODEL CONTAINS CONSTANT-HEAD CELLS


 MAXIMUM STEPSIZE DURING WHICH ANY PARTICLE CANNOT MOVE MORE THAN ONE CELL
<<<<<<< Updated upstream
 = 0.1633    (WHEN MIN. R.F.=1)  AT K=   3, I=   2, J=  29

 MAXIMUM STEPSIZE WHICH MEETS STABILITY CRITERION OF THE ADVECTION TERM
 (FOR PURE FINITE-DIFFERENCE OPTION, MIXELM=0) 
 = 0.1132    (WHEN MIN. R.F.=1)  AT K=   3, I=   2, J=  28
=======
 = 0.1869    (WHEN MIN. R.F.=1)  AT K=   3, I=   2, J=  31

 MAXIMUM STEPSIZE WHICH MEETS STABILITY CRITERION OF THE ADVECTION TERM
 (FOR PURE FINITE-DIFFERENCE OPTION, MIXELM=0) 
 = 0.1248    (WHEN MIN. R.F.=1)  AT K=   3, I=   2, J=  30
>>>>>>> Stashed changes


 TOTAL NUMBER OF POINT SOURCES/SINKS PRESENT IN THE FLOW MODEL =   240

 MAXIMUM STEPSIZE WHICH MEETS STABILITY CRITERION OF THE SINK & SOURCE TERM
 = 0.1000E+31(WHEN MIN. R.F.=1)  AT K=   0, I=   0, J=   0

 MAXIMUM STEPSIZE WHICH MEETS STABILITY CRITERION OF THE DISPERSION TERM
<<<<<<< Updated upstream
 = 0.6196E-02(WHEN MIN. R.F.=1)  AT K=   3, I=   2, J=  31
     1 CALLS TO GCG PACKAGE FOR TRANSPORT TIME STEP   8 IN FLOW TIME STEP  67 STRESS PERIOD   2
    14 TOTAL ITERATIONS
=======
 = 0.6698E-02(WHEN MIN. R.F.=1)  AT K=   3, I=   2, J=  30
     1 CALLS TO GCG PACKAGE FOR TRANSPORT TIME STEP   4 IN FLOW TIME STEP  64 STRESS PERIOD   2
    15 TOTAL ITERATIONS
>>>>>>> Stashed changes
 
 SOLVING FOR HEAD 
 FLOW MODEL IS TRANSIENT
 FLOW MODEL CONTAINS CONSTANT-HEAD CELLS


 MAXIMUM STEPSIZE DURING WHICH ANY PARTICLE CANNOT MOVE MORE THAN ONE CELL
<<<<<<< Updated upstream
 = 0.1633    (WHEN MIN. R.F.=1)  AT K=   3, I=   2, J=  29

 MAXIMUM STEPSIZE WHICH MEETS STABILITY CRITERION OF THE ADVECTION TERM
 (FOR PURE FINITE-DIFFERENCE OPTION, MIXELM=0) 
 = 0.1132    (WHEN MIN. R.F.=1)  AT K=   3, I=   2, J=  28
=======
 = 0.1869    (WHEN MIN. R.F.=1)  AT K=   3, I=   2, J=  31

 MAXIMUM STEPSIZE WHICH MEETS STABILITY CRITERION OF THE ADVECTION TERM
 (FOR PURE FINITE-DIFFERENCE OPTION, MIXELM=0) 
 = 0.1248    (WHEN MIN. R.F.=1)  AT K=   3, I=   2, J=  30
>>>>>>> Stashed changes


 TOTAL NUMBER OF POINT SOURCES/SINKS PRESENT IN THE FLOW MODEL =   240

 MAXIMUM STEPSIZE WHICH MEETS STABILITY CRITERION OF THE SINK & SOURCE TERM
 = 0.1000E+31(WHEN MIN. R.F.=1)  AT K=   0, I=   0, J=   0

 MAXIMUM STEPSIZE WHICH MEETS STABILITY CRITERION OF THE DISPERSION TERM
<<<<<<< Updated upstream
 = 0.6196E-02(WHEN MIN. R.F.=1)  AT K=   3, I=   2, J=  31
     1 CALLS TO GCG PACKAGE FOR TRANSPORT TIME STEP   9 IN FLOW TIME STEP  67 STRESS PERIOD   2
     6 TOTAL ITERATIONS
  MAXIMUM CONCENTRATION CHANGES FOR EACH ITERATION:
  MAX. CHANGE LAYER,ROW,COL MAX. CHANGE LAYER,ROW,COL MAX. CHANGE LAYER,ROW,COL MAX. CHANGE LAYER,ROW,COL MAX. CHANGE LAYER,ROW,COL
 ------------------------------------------------------------------------------------------------------------------------------------
   0.1471E-03 ( 14,  3, 52)  0.6246E-05 (  5,  2, 64)  0.1200E-05 (  6,  1, 56)  0.1914E-06 (  4,  2, 46)  0.1056E-06 (  3,  3, 30)
   0.4631E-07 (  4,  3, 28)


                                          ================================================
                                                         FROM TIME =   68.000     TO    69.000    

=======
 = 0.6698E-02(WHEN MIN. R.F.=1)  AT K=   3, I=   2, J=  30
     1 CALLS TO GCG PACKAGE FOR TRANSPORT TIME STEP   5 IN FLOW TIME STEP  64 STRESS PERIOD   2
    15 TOTAL ITERATIONS
>>>>>>> Stashed changes
 
 SOLVING FOR HEAD 
 FLOW MODEL IS TRANSIENT
 FLOW MODEL CONTAINS CONSTANT-HEAD CELLS


 MAXIMUM STEPSIZE DURING WHICH ANY PARTICLE CANNOT MOVE MORE THAN ONE CELL
<<<<<<< Updated upstream
 = 0.1633    (WHEN MIN. R.F.=1)  AT K=   3, I=   2, J=  29

 MAXIMUM STEPSIZE WHICH MEETS STABILITY CRITERION OF THE ADVECTION TERM
 (FOR PURE FINITE-DIFFERENCE OPTION, MIXELM=0) 
 = 0.1132    (WHEN MIN. R.F.=1)  AT K=   3, I=   2, J=  28
=======
 = 0.1869    (WHEN MIN. R.F.=1)  AT K=   3, I=   2, J=  31

 MAXIMUM STEPSIZE WHICH MEETS STABILITY CRITERION OF THE ADVECTION TERM
 (FOR PURE FINITE-DIFFERENCE OPTION, MIXELM=0) 
 = 0.1248    (WHEN MIN. R.F.=1)  AT K=   3, I=   2, J=  30
>>>>>>> Stashed changes


 TOTAL NUMBER OF POINT SOURCES/SINKS PRESENT IN THE FLOW MODEL =   240

 MAXIMUM STEPSIZE WHICH MEETS STABILITY CRITERION OF THE SINK & SOURCE TERM
 = 0.1000E+31(WHEN MIN. R.F.=1)  AT K=   0, I=   0, J=   0

 MAXIMUM STEPSIZE WHICH MEETS STABILITY CRITERION OF THE DISPERSION TERM
<<<<<<< Updated upstream
 = 0.6196E-02(WHEN MIN. R.F.=1)  AT K=   3, I=   2, J=  31


     1 CALLS TO GCG PACKAGE FOR TRANSPORT TIME STEP   1 IN FLOW TIME STEP  68 STRESS PERIOD   2
    14 TOTAL ITERATIONS

 NO OUTPUT CONTROL FOR STRESS PERIOD    2   TIME STEP  68
=======
 = 0.6698E-02(WHEN MIN. R.F.=1)  AT K=   3, I=   2, J=  30
     1 CALLS TO GCG PACKAGE FOR TRANSPORT TIME STEP   6 IN FLOW TIME STEP  64 STRESS PERIOD   2
    15 TOTAL ITERATIONS
>>>>>>> Stashed changes
 
 SOLVING FOR HEAD 
 FLOW MODEL IS TRANSIENT
 FLOW MODEL CONTAINS CONSTANT-HEAD CELLS


 MAXIMUM STEPSIZE DURING WHICH ANY PARTICLE CANNOT MOVE MORE THAN ONE CELL
<<<<<<< Updated upstream
 = 0.1633    (WHEN MIN. R.F.=1)  AT K=   3, I=   2, J=  29

 MAXIMUM STEPSIZE WHICH MEETS STABILITY CRITERION OF THE ADVECTION TERM
 (FOR PURE FINITE-DIFFERENCE OPTION, MIXELM=0) 
 = 0.1132    (WHEN MIN. R.F.=1)  AT K=   3, I=   2, J=  28
=======
 = 0.1869    (WHEN MIN. R.F.=1)  AT K=   3, I=   2, J=  31

 MAXIMUM STEPSIZE WHICH MEETS STABILITY CRITERION OF THE ADVECTION TERM
 (FOR PURE FINITE-DIFFERENCE OPTION, MIXELM=0) 
 = 0.1248    (WHEN MIN. R.F.=1)  AT K=   3, I=   2, J=  30
>>>>>>> Stashed changes


 TOTAL NUMBER OF POINT SOURCES/SINKS PRESENT IN THE FLOW MODEL =   240

 MAXIMUM STEPSIZE WHICH MEETS STABILITY CRITERION OF THE SINK & SOURCE TERM
 = 0.1000E+31(WHEN MIN. R.F.=1)  AT K=   0, I=   0, J=   0

 MAXIMUM STEPSIZE WHICH MEETS STABILITY CRITERION OF THE DISPERSION TERM
<<<<<<< Updated upstream
 = 0.6196E-02(WHEN MIN. R.F.=1)  AT K=   3, I=   2, J=  31
     1 CALLS TO GCG PACKAGE FOR TRANSPORT TIME STEP   2 IN FLOW TIME STEP  68 STRESS PERIOD   2
    14 TOTAL ITERATIONS
=======
 = 0.6698E-02(WHEN MIN. R.F.=1)  AT K=   3, I=   2, J=  30
     1 CALLS TO GCG PACKAGE FOR TRANSPORT TIME STEP   7 IN FLOW TIME STEP  64 STRESS PERIOD   2
    15 TOTAL ITERATIONS
>>>>>>> Stashed changes
 
 SOLVING FOR HEAD 
 FLOW MODEL IS TRANSIENT
 FLOW MODEL CONTAINS CONSTANT-HEAD CELLS


 MAXIMUM STEPSIZE DURING WHICH ANY PARTICLE CANNOT MOVE MORE THAN ONE CELL
<<<<<<< Updated upstream
 = 0.1633    (WHEN MIN. R.F.=1)  AT K=   3, I=   2, J=  29

 MAXIMUM STEPSIZE WHICH MEETS STABILITY CRITERION OF THE ADVECTION TERM
 (FOR PURE FINITE-DIFFERENCE OPTION, MIXELM=0) 
 = 0.1132    (WHEN MIN. R.F.=1)  AT K=   3, I=   2, J=  28
=======
 = 0.1869    (WHEN MIN. R.F.=1)  AT K=   3, I=   2, J=  31

 MAXIMUM STEPSIZE WHICH MEETS STABILITY CRITERION OF THE ADVECTION TERM
 (FOR PURE FINITE-DIFFERENCE OPTION, MIXELM=0) 
 = 0.1248    (WHEN MIN. R.F.=1)  AT K=   3, I=   2, J=  30
>>>>>>> Stashed changes


 TOTAL NUMBER OF POINT SOURCES/SINKS PRESENT IN THE FLOW MODEL =   240

 MAXIMUM STEPSIZE WHICH MEETS STABILITY CRITERION OF THE SINK & SOURCE TERM
 = 0.1000E+31(WHEN MIN. R.F.=1)  AT K=   0, I=   0, J=   0
<<<<<<< Updated upstream
=======

 MAXIMUM STEPSIZE WHICH MEETS STABILITY CRITERION OF THE DISPERSION TERM
 = 0.6698E-02(WHEN MIN. R.F.=1)  AT K=   3, I=   2, J=  30
     1 CALLS TO GCG PACKAGE FOR TRANSPORT TIME STEP   8 IN FLOW TIME STEP  64 STRESS PERIOD   2
     5 TOTAL ITERATIONS
  MAXIMUM CONCENTRATION CHANGES FOR EACH ITERATION:
  MAX. CHANGE LAYER,ROW,COL MAX. CHANGE LAYER,ROW,COL MAX. CHANGE LAYER,ROW,COL MAX. CHANGE LAYER,ROW,COL MAX. CHANGE LAYER,ROW,COL
 ------------------------------------------------------------------------------------------------------------------------------------
   0.1438E-03 ( 17,  1, 51)  0.4224E-05 (  5,  2, 62)  0.7885E-06 (  4,  2, 54)  0.2659E-06 (  3,  2, 37)  0.8036E-07 (  4,  2, 31)
 UBDSV1 SAVING "         STORAGE" ON UNIT  53 AT TIME STEP 64, STRESS PERIOD   2
 UBDSV2 SAVING "   CONSTANT HEAD" ON UNIT  53 AT TIME STEP 64, STRESS PERIOD   2
 UBDSV1 SAVING "FLOW RIGHT FACE " ON UNIT  53 AT TIME STEP 64, STRESS PERIOD   2
 UBDSV1 SAVING "FLOW FRONT FACE " ON UNIT  53 AT TIME STEP 64, STRESS PERIOD   2
 UBDSV1 SAVING "FLOW LOWER FACE " ON UNIT  53 AT TIME STEP 64, STRESS PERIOD   2
 UBDSV1 SAVING "            DCDT" ON UNIT  53 AT TIME STEP 64, STRESS PERIOD   2

 HEAD WILL BE SAVED ON UNIT   51 AT END OF TIME STEP  64, STRESS PERIOD    2


                                          ================================================
                                                         FROM TIME =   65.000     TO    66.000    
>>>>>>> Stashed changes

 MAXIMUM STEPSIZE WHICH MEETS STABILITY CRITERION OF THE DISPERSION TERM
 = 0.6196E-02(WHEN MIN. R.F.=1)  AT K=   3, I=   2, J=  31
     1 CALLS TO GCG PACKAGE FOR TRANSPORT TIME STEP   3 IN FLOW TIME STEP  68 STRESS PERIOD   2
    14 TOTAL ITERATIONS
 
 SOLVING FOR HEAD 
 FLOW MODEL IS TRANSIENT
 FLOW MODEL CONTAINS CONSTANT-HEAD CELLS


 MAXIMUM STEPSIZE DURING WHICH ANY PARTICLE CANNOT MOVE MORE THAN ONE CELL
<<<<<<< Updated upstream
 = 0.1633    (WHEN MIN. R.F.=1)  AT K=   3, I=   2, J=  29

 MAXIMUM STEPSIZE WHICH MEETS STABILITY CRITERION OF THE ADVECTION TERM
 (FOR PURE FINITE-DIFFERENCE OPTION, MIXELM=0) 
 = 0.1132    (WHEN MIN. R.F.=1)  AT K=   3, I=   2, J=  28
=======
 = 0.1869    (WHEN MIN. R.F.=1)  AT K=   3, I=   2, J=  31

 MAXIMUM STEPSIZE WHICH MEETS STABILITY CRITERION OF THE ADVECTION TERM
 (FOR PURE FINITE-DIFFERENCE OPTION, MIXELM=0) 
 = 0.1248    (WHEN MIN. R.F.=1)  AT K=   3, I=   2, J=  30
>>>>>>> Stashed changes


 TOTAL NUMBER OF POINT SOURCES/SINKS PRESENT IN THE FLOW MODEL =   240

 MAXIMUM STEPSIZE WHICH MEETS STABILITY CRITERION OF THE SINK & SOURCE TERM
 = 0.1000E+31(WHEN MIN. R.F.=1)  AT K=   0, I=   0, J=   0

 MAXIMUM STEPSIZE WHICH MEETS STABILITY CRITERION OF THE DISPERSION TERM
<<<<<<< Updated upstream
 = 0.6196E-02(WHEN MIN. R.F.=1)  AT K=   3, I=   2, J=  31
     1 CALLS TO GCG PACKAGE FOR TRANSPORT TIME STEP   4 IN FLOW TIME STEP  68 STRESS PERIOD   2
    14 TOTAL ITERATIONS
=======
 = 0.6698E-02(WHEN MIN. R.F.=1)  AT K=   3, I=   2, J=  30


     1 CALLS TO GCG PACKAGE FOR TRANSPORT TIME STEP   1 IN FLOW TIME STEP  65 STRESS PERIOD   2
    15 TOTAL ITERATIONS

 OUTPUT CONTROL FOR STRESS PERIOD    2   TIME STEP  65
    SAVE HEAD FOR ALL LAYERS
    SAVE BUDGET
>>>>>>> Stashed changes
 
 SOLVING FOR HEAD 
 FLOW MODEL IS TRANSIENT
 FLOW MODEL CONTAINS CONSTANT-HEAD CELLS


 MAXIMUM STEPSIZE DURING WHICH ANY PARTICLE CANNOT MOVE MORE THAN ONE CELL
<<<<<<< Updated upstream
 = 0.1633    (WHEN MIN. R.F.=1)  AT K=   3, I=   2, J=  29

 MAXIMUM STEPSIZE WHICH MEETS STABILITY CRITERION OF THE ADVECTION TERM
 (FOR PURE FINITE-DIFFERENCE OPTION, MIXELM=0) 
 = 0.1132    (WHEN MIN. R.F.=1)  AT K=   3, I=   2, J=  28
=======
 = 0.1869    (WHEN MIN. R.F.=1)  AT K=   3, I=   2, J=  31

 MAXIMUM STEPSIZE WHICH MEETS STABILITY CRITERION OF THE ADVECTION TERM
 (FOR PURE FINITE-DIFFERENCE OPTION, MIXELM=0) 
 = 0.1248    (WHEN MIN. R.F.=1)  AT K=   3, I=   2, J=  30
>>>>>>> Stashed changes


 TOTAL NUMBER OF POINT SOURCES/SINKS PRESENT IN THE FLOW MODEL =   240

 MAXIMUM STEPSIZE WHICH MEETS STABILITY CRITERION OF THE SINK & SOURCE TERM
 = 0.1000E+31(WHEN MIN. R.F.=1)  AT K=   0, I=   0, J=   0

 MAXIMUM STEPSIZE WHICH MEETS STABILITY CRITERION OF THE DISPERSION TERM
<<<<<<< Updated upstream
 = 0.6196E-02(WHEN MIN. R.F.=1)  AT K=   3, I=   2, J=  31
     1 CALLS TO GCG PACKAGE FOR TRANSPORT TIME STEP   5 IN FLOW TIME STEP  68 STRESS PERIOD   2
    14 TOTAL ITERATIONS
=======
 = 0.6698E-02(WHEN MIN. R.F.=1)  AT K=   3, I=   2, J=  30
     1 CALLS TO GCG PACKAGE FOR TRANSPORT TIME STEP   2 IN FLOW TIME STEP  65 STRESS PERIOD   2
    15 TOTAL ITERATIONS
>>>>>>> Stashed changes
 
 SOLVING FOR HEAD 
 FLOW MODEL IS TRANSIENT
 FLOW MODEL CONTAINS CONSTANT-HEAD CELLS


 MAXIMUM STEPSIZE DURING WHICH ANY PARTICLE CANNOT MOVE MORE THAN ONE CELL
<<<<<<< Updated upstream
 = 0.1633    (WHEN MIN. R.F.=1)  AT K=   3, I=   2, J=  29

 MAXIMUM STEPSIZE WHICH MEETS STABILITY CRITERION OF THE ADVECTION TERM
 (FOR PURE FINITE-DIFFERENCE OPTION, MIXELM=0) 
 = 0.1132    (WHEN MIN. R.F.=1)  AT K=   3, I=   2, J=  28
=======
 = 0.1869    (WHEN MIN. R.F.=1)  AT K=   3, I=   2, J=  31

 MAXIMUM STEPSIZE WHICH MEETS STABILITY CRITERION OF THE ADVECTION TERM
 (FOR PURE FINITE-DIFFERENCE OPTION, MIXELM=0) 
 = 0.1248    (WHEN MIN. R.F.=1)  AT K=   3, I=   2, J=  30
>>>>>>> Stashed changes


 TOTAL NUMBER OF POINT SOURCES/SINKS PRESENT IN THE FLOW MODEL =   240

 MAXIMUM STEPSIZE WHICH MEETS STABILITY CRITERION OF THE SINK & SOURCE TERM
 = 0.1000E+31(WHEN MIN. R.F.=1)  AT K=   0, I=   0, J=   0

 MAXIMUM STEPSIZE WHICH MEETS STABILITY CRITERION OF THE DISPERSION TERM
<<<<<<< Updated upstream
 = 0.6196E-02(WHEN MIN. R.F.=1)  AT K=   3, I=   2, J=  31
     1 CALLS TO GCG PACKAGE FOR TRANSPORT TIME STEP   6 IN FLOW TIME STEP  68 STRESS PERIOD   2
    14 TOTAL ITERATIONS
=======
 = 0.6698E-02(WHEN MIN. R.F.=1)  AT K=   3, I=   2, J=  30
     1 CALLS TO GCG PACKAGE FOR TRANSPORT TIME STEP   3 IN FLOW TIME STEP  65 STRESS PERIOD   2
    15 TOTAL ITERATIONS
>>>>>>> Stashed changes
 
 SOLVING FOR HEAD 
 FLOW MODEL IS TRANSIENT
 FLOW MODEL CONTAINS CONSTANT-HEAD CELLS


 MAXIMUM STEPSIZE DURING WHICH ANY PARTICLE CANNOT MOVE MORE THAN ONE CELL
<<<<<<< Updated upstream
 = 0.1633    (WHEN MIN. R.F.=1)  AT K=   3, I=   2, J=  29

 MAXIMUM STEPSIZE WHICH MEETS STABILITY CRITERION OF THE ADVECTION TERM
 (FOR PURE FINITE-DIFFERENCE OPTION, MIXELM=0) 
 = 0.1132    (WHEN MIN. R.F.=1)  AT K=   3, I=   2, J=  28
=======
 = 0.1869    (WHEN MIN. R.F.=1)  AT K=   3, I=   2, J=  31

 MAXIMUM STEPSIZE WHICH MEETS STABILITY CRITERION OF THE ADVECTION TERM
 (FOR PURE FINITE-DIFFERENCE OPTION, MIXELM=0) 
 = 0.1248    (WHEN MIN. R.F.=1)  AT K=   3, I=   2, J=  30
>>>>>>> Stashed changes


 TOTAL NUMBER OF POINT SOURCES/SINKS PRESENT IN THE FLOW MODEL =   240

 MAXIMUM STEPSIZE WHICH MEETS STABILITY CRITERION OF THE SINK & SOURCE TERM
 = 0.1000E+31(WHEN MIN. R.F.=1)  AT K=   0, I=   0, J=   0

 MAXIMUM STEPSIZE WHICH MEETS STABILITY CRITERION OF THE DISPERSION TERM
<<<<<<< Updated upstream
 = 0.6196E-02(WHEN MIN. R.F.=1)  AT K=   3, I=   2, J=  31
     1 CALLS TO GCG PACKAGE FOR TRANSPORT TIME STEP   7 IN FLOW TIME STEP  68 STRESS PERIOD   2
    14 TOTAL ITERATIONS
=======
 = 0.6698E-02(WHEN MIN. R.F.=1)  AT K=   3, I=   2, J=  30
     1 CALLS TO GCG PACKAGE FOR TRANSPORT TIME STEP   4 IN FLOW TIME STEP  65 STRESS PERIOD   2
    15 TOTAL ITERATIONS
>>>>>>> Stashed changes
 
 SOLVING FOR HEAD 
 FLOW MODEL IS TRANSIENT
 FLOW MODEL CONTAINS CONSTANT-HEAD CELLS


 MAXIMUM STEPSIZE DURING WHICH ANY PARTICLE CANNOT MOVE MORE THAN ONE CELL
<<<<<<< Updated upstream
 = 0.1633    (WHEN MIN. R.F.=1)  AT K=   3, I=   2, J=  29

 MAXIMUM STEPSIZE WHICH MEETS STABILITY CRITERION OF THE ADVECTION TERM
 (FOR PURE FINITE-DIFFERENCE OPTION, MIXELM=0) 
 = 0.1132    (WHEN MIN. R.F.=1)  AT K=   3, I=   2, J=  28
=======
 = 0.1869    (WHEN MIN. R.F.=1)  AT K=   3, I=   2, J=  31

 MAXIMUM STEPSIZE WHICH MEETS STABILITY CRITERION OF THE ADVECTION TERM
 (FOR PURE FINITE-DIFFERENCE OPTION, MIXELM=0) 
 = 0.1248    (WHEN MIN. R.F.=1)  AT K=   3, I=   2, J=  30
>>>>>>> Stashed changes


 TOTAL NUMBER OF POINT SOURCES/SINKS PRESENT IN THE FLOW MODEL =   240

 MAXIMUM STEPSIZE WHICH MEETS STABILITY CRITERION OF THE SINK & SOURCE TERM
 = 0.1000E+31(WHEN MIN. R.F.=1)  AT K=   0, I=   0, J=   0

 MAXIMUM STEPSIZE WHICH MEETS STABILITY CRITERION OF THE DISPERSION TERM
<<<<<<< Updated upstream
 = 0.6196E-02(WHEN MIN. R.F.=1)  AT K=   3, I=   2, J=  31
     1 CALLS TO GCG PACKAGE FOR TRANSPORT TIME STEP   8 IN FLOW TIME STEP  68 STRESS PERIOD   2
    14 TOTAL ITERATIONS
=======
 = 0.6698E-02(WHEN MIN. R.F.=1)  AT K=   3, I=   2, J=  30
     1 CALLS TO GCG PACKAGE FOR TRANSPORT TIME STEP   5 IN FLOW TIME STEP  65 STRESS PERIOD   2
    15 TOTAL ITERATIONS
>>>>>>> Stashed changes
 
 SOLVING FOR HEAD 
 FLOW MODEL IS TRANSIENT
 FLOW MODEL CONTAINS CONSTANT-HEAD CELLS


 MAXIMUM STEPSIZE DURING WHICH ANY PARTICLE CANNOT MOVE MORE THAN ONE CELL
<<<<<<< Updated upstream
 = 0.1633    (WHEN MIN. R.F.=1)  AT K=   3, I=   2, J=  29

 MAXIMUM STEPSIZE WHICH MEETS STABILITY CRITERION OF THE ADVECTION TERM
 (FOR PURE FINITE-DIFFERENCE OPTION, MIXELM=0) 
 = 0.1132    (WHEN MIN. R.F.=1)  AT K=   3, I=   2, J=  28
=======
 = 0.1869    (WHEN MIN. R.F.=1)  AT K=   3, I=   2, J=  31

 MAXIMUM STEPSIZE WHICH MEETS STABILITY CRITERION OF THE ADVECTION TERM
 (FOR PURE FINITE-DIFFERENCE OPTION, MIXELM=0) 
 = 0.1248    (WHEN MIN. R.F.=1)  AT K=   3, I=   2, J=  30
>>>>>>> Stashed changes


 TOTAL NUMBER OF POINT SOURCES/SINKS PRESENT IN THE FLOW MODEL =   240

 MAXIMUM STEPSIZE WHICH MEETS STABILITY CRITERION OF THE SINK & SOURCE TERM
 = 0.1000E+31(WHEN MIN. R.F.=1)  AT K=   0, I=   0, J=   0

 MAXIMUM STEPSIZE WHICH MEETS STABILITY CRITERION OF THE DISPERSION TERM
<<<<<<< Updated upstream
 = 0.6196E-02(WHEN MIN. R.F.=1)  AT K=   3, I=   2, J=  31
     1 CALLS TO GCG PACKAGE FOR TRANSPORT TIME STEP   9 IN FLOW TIME STEP  68 STRESS PERIOD   2
     5 TOTAL ITERATIONS
  MAXIMUM CONCENTRATION CHANGES FOR EACH ITERATION:
  MAX. CHANGE LAYER,ROW,COL MAX. CHANGE LAYER,ROW,COL MAX. CHANGE LAYER,ROW,COL MAX. CHANGE LAYER,ROW,COL MAX. CHANGE LAYER,ROW,COL
 ------------------------------------------------------------------------------------------------------------------------------------
   0.1461E-03 ( 14,  3, 52)  0.6076E-05 (  5,  2, 64)  0.1162E-05 (  6,  1, 56)  0.1837E-06 (  4,  2, 46)  0.9918E-07 (  3,  3, 30)


                                          ================================================
                                                         FROM TIME =   69.000     TO    70.000    

=======
 = 0.6698E-02(WHEN MIN. R.F.=1)  AT K=   3, I=   2, J=  30
     1 CALLS TO GCG PACKAGE FOR TRANSPORT TIME STEP   6 IN FLOW TIME STEP  65 STRESS PERIOD   2
    15 TOTAL ITERATIONS
>>>>>>> Stashed changes
 
 SOLVING FOR HEAD 
 FLOW MODEL IS TRANSIENT
 FLOW MODEL CONTAINS CONSTANT-HEAD CELLS


 MAXIMUM STEPSIZE DURING WHICH ANY PARTICLE CANNOT MOVE MORE THAN ONE CELL
<<<<<<< Updated upstream
 = 0.1633    (WHEN MIN. R.F.=1)  AT K=   3, I=   2, J=  29

 MAXIMUM STEPSIZE WHICH MEETS STABILITY CRITERION OF THE ADVECTION TERM
 (FOR PURE FINITE-DIFFERENCE OPTION, MIXELM=0) 
 = 0.1132    (WHEN MIN. R.F.=1)  AT K=   3, I=   2, J=  28
=======
 = 0.1869    (WHEN MIN. R.F.=1)  AT K=   3, I=   2, J=  31

 MAXIMUM STEPSIZE WHICH MEETS STABILITY CRITERION OF THE ADVECTION TERM
 (FOR PURE FINITE-DIFFERENCE OPTION, MIXELM=0) 
 = 0.1248    (WHEN MIN. R.F.=1)  AT K=   3, I=   2, J=  30
>>>>>>> Stashed changes


 TOTAL NUMBER OF POINT SOURCES/SINKS PRESENT IN THE FLOW MODEL =   240

 MAXIMUM STEPSIZE WHICH MEETS STABILITY CRITERION OF THE SINK & SOURCE TERM
 = 0.1000E+31(WHEN MIN. R.F.=1)  AT K=   0, I=   0, J=   0

 MAXIMUM STEPSIZE WHICH MEETS STABILITY CRITERION OF THE DISPERSION TERM
<<<<<<< Updated upstream
 = 0.6196E-02(WHEN MIN. R.F.=1)  AT K=   3, I=   2, J=  31


     1 CALLS TO GCG PACKAGE FOR TRANSPORT TIME STEP   1 IN FLOW TIME STEP  69 STRESS PERIOD   2
    14 TOTAL ITERATIONS

 NO OUTPUT CONTROL FOR STRESS PERIOD    2   TIME STEP  69
=======
 = 0.6698E-02(WHEN MIN. R.F.=1)  AT K=   3, I=   2, J=  30
     1 CALLS TO GCG PACKAGE FOR TRANSPORT TIME STEP   7 IN FLOW TIME STEP  65 STRESS PERIOD   2
    15 TOTAL ITERATIONS
>>>>>>> Stashed changes
 
 SOLVING FOR HEAD 
 FLOW MODEL IS TRANSIENT
 FLOW MODEL CONTAINS CONSTANT-HEAD CELLS


 MAXIMUM STEPSIZE DURING WHICH ANY PARTICLE CANNOT MOVE MORE THAN ONE CELL
<<<<<<< Updated upstream
 = 0.1633    (WHEN MIN. R.F.=1)  AT K=   3, I=   2, J=  29

 MAXIMUM STEPSIZE WHICH MEETS STABILITY CRITERION OF THE ADVECTION TERM
 (FOR PURE FINITE-DIFFERENCE OPTION, MIXELM=0) 
 = 0.1132    (WHEN MIN. R.F.=1)  AT K=   3, I=   2, J=  28
=======
 = 0.1869    (WHEN MIN. R.F.=1)  AT K=   3, I=   2, J=  31

 MAXIMUM STEPSIZE WHICH MEETS STABILITY CRITERION OF THE ADVECTION TERM
 (FOR PURE FINITE-DIFFERENCE OPTION, MIXELM=0) 
 = 0.1248    (WHEN MIN. R.F.=1)  AT K=   3, I=   2, J=  30
>>>>>>> Stashed changes


 TOTAL NUMBER OF POINT SOURCES/SINKS PRESENT IN THE FLOW MODEL =   240

 MAXIMUM STEPSIZE WHICH MEETS STABILITY CRITERION OF THE SINK & SOURCE TERM
 = 0.1000E+31(WHEN MIN. R.F.=1)  AT K=   0, I=   0, J=   0

 MAXIMUM STEPSIZE WHICH MEETS STABILITY CRITERION OF THE DISPERSION TERM
<<<<<<< Updated upstream
 = 0.6196E-02(WHEN MIN. R.F.=1)  AT K=   3, I=   2, J=  31
     1 CALLS TO GCG PACKAGE FOR TRANSPORT TIME STEP   2 IN FLOW TIME STEP  69 STRESS PERIOD   2
    14 TOTAL ITERATIONS
=======
 = 0.6698E-02(WHEN MIN. R.F.=1)  AT K=   3, I=   2, J=  30
     1 CALLS TO GCG PACKAGE FOR TRANSPORT TIME STEP   8 IN FLOW TIME STEP  65 STRESS PERIOD   2
     5 TOTAL ITERATIONS
  MAXIMUM CONCENTRATION CHANGES FOR EACH ITERATION:
  MAX. CHANGE LAYER,ROW,COL MAX. CHANGE LAYER,ROW,COL MAX. CHANGE LAYER,ROW,COL MAX. CHANGE LAYER,ROW,COL MAX. CHANGE LAYER,ROW,COL
 ------------------------------------------------------------------------------------------------------------------------------------
   0.1397E-03 ( 17,  1, 51)  0.4100E-05 (  5,  2, 62)  0.7625E-06 (  4,  2, 54)  0.2522E-06 (  3,  2, 37)  0.7666E-07 (  4,  2, 31)
 UBDSV1 SAVING "         STORAGE" ON UNIT  53 AT TIME STEP 65, STRESS PERIOD   2
 UBDSV2 SAVING "   CONSTANT HEAD" ON UNIT  53 AT TIME STEP 65, STRESS PERIOD   2
 UBDSV1 SAVING "FLOW RIGHT FACE " ON UNIT  53 AT TIME STEP 65, STRESS PERIOD   2
 UBDSV1 SAVING "FLOW FRONT FACE " ON UNIT  53 AT TIME STEP 65, STRESS PERIOD   2
 UBDSV1 SAVING "FLOW LOWER FACE " ON UNIT  53 AT TIME STEP 65, STRESS PERIOD   2
 UBDSV1 SAVING "            DCDT" ON UNIT  53 AT TIME STEP 65, STRESS PERIOD   2

 HEAD WILL BE SAVED ON UNIT   51 AT END OF TIME STEP  65, STRESS PERIOD    2


                                          ================================================
                                                         FROM TIME =   66.000     TO    67.000    

>>>>>>> Stashed changes
 
 SOLVING FOR HEAD 
 FLOW MODEL IS TRANSIENT
 FLOW MODEL CONTAINS CONSTANT-HEAD CELLS


 MAXIMUM STEPSIZE DURING WHICH ANY PARTICLE CANNOT MOVE MORE THAN ONE CELL
<<<<<<< Updated upstream
 = 0.1633    (WHEN MIN. R.F.=1)  AT K=   3, I=   2, J=  29

 MAXIMUM STEPSIZE WHICH MEETS STABILITY CRITERION OF THE ADVECTION TERM
 (FOR PURE FINITE-DIFFERENCE OPTION, MIXELM=0) 
 = 0.1132    (WHEN MIN. R.F.=1)  AT K=   3, I=   2, J=  28
=======
 = 0.1869    (WHEN MIN. R.F.=1)  AT K=   3, I=   2, J=  31

 MAXIMUM STEPSIZE WHICH MEETS STABILITY CRITERION OF THE ADVECTION TERM
 (FOR PURE FINITE-DIFFERENCE OPTION, MIXELM=0) 
 = 0.1248    (WHEN MIN. R.F.=1)  AT K=   3, I=   2, J=  30
>>>>>>> Stashed changes


 TOTAL NUMBER OF POINT SOURCES/SINKS PRESENT IN THE FLOW MODEL =   240

 MAXIMUM STEPSIZE WHICH MEETS STABILITY CRITERION OF THE SINK & SOURCE TERM
 = 0.1000E+31(WHEN MIN. R.F.=1)  AT K=   0, I=   0, J=   0

 MAXIMUM STEPSIZE WHICH MEETS STABILITY CRITERION OF THE DISPERSION TERM
<<<<<<< Updated upstream
 = 0.6196E-02(WHEN MIN. R.F.=1)  AT K=   3, I=   2, J=  31
     1 CALLS TO GCG PACKAGE FOR TRANSPORT TIME STEP   3 IN FLOW TIME STEP  69 STRESS PERIOD   2
    14 TOTAL ITERATIONS
=======
 = 0.6698E-02(WHEN MIN. R.F.=1)  AT K=   3, I=   2, J=  30


     1 CALLS TO GCG PACKAGE FOR TRANSPORT TIME STEP   1 IN FLOW TIME STEP  66 STRESS PERIOD   2
    15 TOTAL ITERATIONS

 OUTPUT CONTROL FOR STRESS PERIOD    2   TIME STEP  66
    SAVE HEAD FOR ALL LAYERS
    SAVE BUDGET
>>>>>>> Stashed changes
 
 SOLVING FOR HEAD 
 FLOW MODEL IS TRANSIENT
 FLOW MODEL CONTAINS CONSTANT-HEAD CELLS


 MAXIMUM STEPSIZE DURING WHICH ANY PARTICLE CANNOT MOVE MORE THAN ONE CELL
<<<<<<< Updated upstream
 = 0.1633    (WHEN MIN. R.F.=1)  AT K=   3, I=   2, J=  29

 MAXIMUM STEPSIZE WHICH MEETS STABILITY CRITERION OF THE ADVECTION TERM
 (FOR PURE FINITE-DIFFERENCE OPTION, MIXELM=0) 
 = 0.1132    (WHEN MIN. R.F.=1)  AT K=   3, I=   2, J=  28
=======
 = 0.1869    (WHEN MIN. R.F.=1)  AT K=   3, I=   2, J=  31

 MAXIMUM STEPSIZE WHICH MEETS STABILITY CRITERION OF THE ADVECTION TERM
 (FOR PURE FINITE-DIFFERENCE OPTION, MIXELM=0) 
 = 0.1248    (WHEN MIN. R.F.=1)  AT K=   3, I=   2, J=  30
>>>>>>> Stashed changes


 TOTAL NUMBER OF POINT SOURCES/SINKS PRESENT IN THE FLOW MODEL =   240

 MAXIMUM STEPSIZE WHICH MEETS STABILITY CRITERION OF THE SINK & SOURCE TERM
 = 0.1000E+31(WHEN MIN. R.F.=1)  AT K=   0, I=   0, J=   0

 MAXIMUM STEPSIZE WHICH MEETS STABILITY CRITERION OF THE DISPERSION TERM
<<<<<<< Updated upstream
 = 0.6196E-02(WHEN MIN. R.F.=1)  AT K=   3, I=   2, J=  31
     1 CALLS TO GCG PACKAGE FOR TRANSPORT TIME STEP   4 IN FLOW TIME STEP  69 STRESS PERIOD   2
    14 TOTAL ITERATIONS
=======
 = 0.6698E-02(WHEN MIN. R.F.=1)  AT K=   3, I=   2, J=  30
     1 CALLS TO GCG PACKAGE FOR TRANSPORT TIME STEP   2 IN FLOW TIME STEP  66 STRESS PERIOD   2
    15 TOTAL ITERATIONS
>>>>>>> Stashed changes
 
 SOLVING FOR HEAD 
 FLOW MODEL IS TRANSIENT
 FLOW MODEL CONTAINS CONSTANT-HEAD CELLS


 MAXIMUM STEPSIZE DURING WHICH ANY PARTICLE CANNOT MOVE MORE THAN ONE CELL
<<<<<<< Updated upstream
 = 0.1633    (WHEN MIN. R.F.=1)  AT K=   3, I=   2, J=  29

 MAXIMUM STEPSIZE WHICH MEETS STABILITY CRITERION OF THE ADVECTION TERM
 (FOR PURE FINITE-DIFFERENCE OPTION, MIXELM=0) 
 = 0.1132    (WHEN MIN. R.F.=1)  AT K=   3, I=   2, J=  28
=======
 = 0.1869    (WHEN MIN. R.F.=1)  AT K=   3, I=   2, J=  31

 MAXIMUM STEPSIZE WHICH MEETS STABILITY CRITERION OF THE ADVECTION TERM
 (FOR PURE FINITE-DIFFERENCE OPTION, MIXELM=0) 
 = 0.1248    (WHEN MIN. R.F.=1)  AT K=   3, I=   2, J=  30
>>>>>>> Stashed changes


 TOTAL NUMBER OF POINT SOURCES/SINKS PRESENT IN THE FLOW MODEL =   240

 MAXIMUM STEPSIZE WHICH MEETS STABILITY CRITERION OF THE SINK & SOURCE TERM
 = 0.1000E+31(WHEN MIN. R.F.=1)  AT K=   0, I=   0, J=   0

 MAXIMUM STEPSIZE WHICH MEETS STABILITY CRITERION OF THE DISPERSION TERM
<<<<<<< Updated upstream
 = 0.6196E-02(WHEN MIN. R.F.=1)  AT K=   3, I=   2, J=  31
     1 CALLS TO GCG PACKAGE FOR TRANSPORT TIME STEP   5 IN FLOW TIME STEP  69 STRESS PERIOD   2
    14 TOTAL ITERATIONS
=======
 = 0.6698E-02(WHEN MIN. R.F.=1)  AT K=   3, I=   2, J=  30
     1 CALLS TO GCG PACKAGE FOR TRANSPORT TIME STEP   3 IN FLOW TIME STEP  66 STRESS PERIOD   2
    15 TOTAL ITERATIONS
>>>>>>> Stashed changes
 
 SOLVING FOR HEAD 
 FLOW MODEL IS TRANSIENT
 FLOW MODEL CONTAINS CONSTANT-HEAD CELLS


 MAXIMUM STEPSIZE DURING WHICH ANY PARTICLE CANNOT MOVE MORE THAN ONE CELL
<<<<<<< Updated upstream
 = 0.1633    (WHEN MIN. R.F.=1)  AT K=   3, I=   2, J=  29

 MAXIMUM STEPSIZE WHICH MEETS STABILITY CRITERION OF THE ADVECTION TERM
 (FOR PURE FINITE-DIFFERENCE OPTION, MIXELM=0) 
 = 0.1132    (WHEN MIN. R.F.=1)  AT K=   3, I=   2, J=  28
=======
 = 0.1869    (WHEN MIN. R.F.=1)  AT K=   3, I=   2, J=  31

 MAXIMUM STEPSIZE WHICH MEETS STABILITY CRITERION OF THE ADVECTION TERM
 (FOR PURE FINITE-DIFFERENCE OPTION, MIXELM=0) 
 = 0.1248    (WHEN MIN. R.F.=1)  AT K=   3, I=   2, J=  30
>>>>>>> Stashed changes


 TOTAL NUMBER OF POINT SOURCES/SINKS PRESENT IN THE FLOW MODEL =   240

 MAXIMUM STEPSIZE WHICH MEETS STABILITY CRITERION OF THE SINK & SOURCE TERM
 = 0.1000E+31(WHEN MIN. R.F.=1)  AT K=   0, I=   0, J=   0

 MAXIMUM STEPSIZE WHICH MEETS STABILITY CRITERION OF THE DISPERSION TERM
<<<<<<< Updated upstream
 = 0.6196E-02(WHEN MIN. R.F.=1)  AT K=   3, I=   2, J=  31
     1 CALLS TO GCG PACKAGE FOR TRANSPORT TIME STEP   6 IN FLOW TIME STEP  69 STRESS PERIOD   2
    14 TOTAL ITERATIONS
=======
 = 0.6698E-02(WHEN MIN. R.F.=1)  AT K=   3, I=   2, J=  30
     1 CALLS TO GCG PACKAGE FOR TRANSPORT TIME STEP   4 IN FLOW TIME STEP  66 STRESS PERIOD   2
    15 TOTAL ITERATIONS
>>>>>>> Stashed changes
 
 SOLVING FOR HEAD 
 FLOW MODEL IS TRANSIENT
 FLOW MODEL CONTAINS CONSTANT-HEAD CELLS


 MAXIMUM STEPSIZE DURING WHICH ANY PARTICLE CANNOT MOVE MORE THAN ONE CELL
<<<<<<< Updated upstream
 = 0.1633    (WHEN MIN. R.F.=1)  AT K=   3, I=   2, J=  29

 MAXIMUM STEPSIZE WHICH MEETS STABILITY CRITERION OF THE ADVECTION TERM
 (FOR PURE FINITE-DIFFERENCE OPTION, MIXELM=0) 
 = 0.1132    (WHEN MIN. R.F.=1)  AT K=   3, I=   2, J=  28
=======
 = 0.1869    (WHEN MIN. R.F.=1)  AT K=   3, I=   2, J=  31

 MAXIMUM STEPSIZE WHICH MEETS STABILITY CRITERION OF THE ADVECTION TERM
 (FOR PURE FINITE-DIFFERENCE OPTION, MIXELM=0) 
 = 0.1248    (WHEN MIN. R.F.=1)  AT K=   3, I=   2, J=  30
>>>>>>> Stashed changes


 TOTAL NUMBER OF POINT SOURCES/SINKS PRESENT IN THE FLOW MODEL =   240

 MAXIMUM STEPSIZE WHICH MEETS STABILITY CRITERION OF THE SINK & SOURCE TERM
 = 0.1000E+31(WHEN MIN. R.F.=1)  AT K=   0, I=   0, J=   0

 MAXIMUM STEPSIZE WHICH MEETS STABILITY CRITERION OF THE DISPERSION TERM
<<<<<<< Updated upstream
 = 0.6196E-02(WHEN MIN. R.F.=1)  AT K=   3, I=   2, J=  31
     1 CALLS TO GCG PACKAGE FOR TRANSPORT TIME STEP   7 IN FLOW TIME STEP  69 STRESS PERIOD   2
    14 TOTAL ITERATIONS
=======
 = 0.6698E-02(WHEN MIN. R.F.=1)  AT K=   3, I=   2, J=  30
     1 CALLS TO GCG PACKAGE FOR TRANSPORT TIME STEP   5 IN FLOW TIME STEP  66 STRESS PERIOD   2
    15 TOTAL ITERATIONS
>>>>>>> Stashed changes
 
 SOLVING FOR HEAD 
 FLOW MODEL IS TRANSIENT
 FLOW MODEL CONTAINS CONSTANT-HEAD CELLS


 MAXIMUM STEPSIZE DURING WHICH ANY PARTICLE CANNOT MOVE MORE THAN ONE CELL
<<<<<<< Updated upstream
 = 0.1633    (WHEN MIN. R.F.=1)  AT K=   3, I=   2, J=  29

 MAXIMUM STEPSIZE WHICH MEETS STABILITY CRITERION OF THE ADVECTION TERM
 (FOR PURE FINITE-DIFFERENCE OPTION, MIXELM=0) 
 = 0.1132    (WHEN MIN. R.F.=1)  AT K=   3, I=   2, J=  28
=======
 = 0.1869    (WHEN MIN. R.F.=1)  AT K=   3, I=   2, J=  31

 MAXIMUM STEPSIZE WHICH MEETS STABILITY CRITERION OF THE ADVECTION TERM
 (FOR PURE FINITE-DIFFERENCE OPTION, MIXELM=0) 
 = 0.1248    (WHEN MIN. R.F.=1)  AT K=   3, I=   2, J=  30
>>>>>>> Stashed changes


 TOTAL NUMBER OF POINT SOURCES/SINKS PRESENT IN THE FLOW MODEL =   240

 MAXIMUM STEPSIZE WHICH MEETS STABILITY CRITERION OF THE SINK & SOURCE TERM
 = 0.1000E+31(WHEN MIN. R.F.=1)  AT K=   0, I=   0, J=   0

 MAXIMUM STEPSIZE WHICH MEETS STABILITY CRITERION OF THE DISPERSION TERM
<<<<<<< Updated upstream
 = 0.6196E-02(WHEN MIN. R.F.=1)  AT K=   3, I=   2, J=  31
     1 CALLS TO GCG PACKAGE FOR TRANSPORT TIME STEP   8 IN FLOW TIME STEP  69 STRESS PERIOD   2
    14 TOTAL ITERATIONS
=======
 = 0.6698E-02(WHEN MIN. R.F.=1)  AT K=   3, I=   2, J=  30
     1 CALLS TO GCG PACKAGE FOR TRANSPORT TIME STEP   6 IN FLOW TIME STEP  66 STRESS PERIOD   2
    15 TOTAL ITERATIONS
>>>>>>> Stashed changes
 
 SOLVING FOR HEAD 
 FLOW MODEL IS TRANSIENT
 FLOW MODEL CONTAINS CONSTANT-HEAD CELLS


 MAXIMUM STEPSIZE DURING WHICH ANY PARTICLE CANNOT MOVE MORE THAN ONE CELL
<<<<<<< Updated upstream
 = 0.1633    (WHEN MIN. R.F.=1)  AT K=   3, I=   2, J=  29

 MAXIMUM STEPSIZE WHICH MEETS STABILITY CRITERION OF THE ADVECTION TERM
 (FOR PURE FINITE-DIFFERENCE OPTION, MIXELM=0) 
 = 0.1132    (WHEN MIN. R.F.=1)  AT K=   3, I=   2, J=  28
=======
 = 0.1869    (WHEN MIN. R.F.=1)  AT K=   3, I=   2, J=  31

 MAXIMUM STEPSIZE WHICH MEETS STABILITY CRITERION OF THE ADVECTION TERM
 (FOR PURE FINITE-DIFFERENCE OPTION, MIXELM=0) 
 = 0.1248    (WHEN MIN. R.F.=1)  AT K=   3, I=   2, J=  30
>>>>>>> Stashed changes


 TOTAL NUMBER OF POINT SOURCES/SINKS PRESENT IN THE FLOW MODEL =   240

 MAXIMUM STEPSIZE WHICH MEETS STABILITY CRITERION OF THE SINK & SOURCE TERM
 = 0.1000E+31(WHEN MIN. R.F.=1)  AT K=   0, I=   0, J=   0

 MAXIMUM STEPSIZE WHICH MEETS STABILITY CRITERION OF THE DISPERSION TERM
<<<<<<< Updated upstream
 = 0.6196E-02(WHEN MIN. R.F.=1)  AT K=   3, I=   2, J=  31
     1 CALLS TO GCG PACKAGE FOR TRANSPORT TIME STEP   9 IN FLOW TIME STEP  69 STRESS PERIOD   2
     5 TOTAL ITERATIONS
  MAXIMUM CONCENTRATION CHANGES FOR EACH ITERATION:
  MAX. CHANGE LAYER,ROW,COL MAX. CHANGE LAYER,ROW,COL MAX. CHANGE LAYER,ROW,COL MAX. CHANGE LAYER,ROW,COL MAX. CHANGE LAYER,ROW,COL
 ------------------------------------------------------------------------------------------------------------------------------------
   0.1451E-03 ( 14,  3, 52)  0.5913E-05 (  5,  2, 64)  0.1126E-05 (  6,  1, 56)  0.1756E-06 (  4,  2, 46)  0.9436E-07 (  3,  3, 30)


                                          ================================================
                                                         FROM TIME =   70.000     TO    71.000    

=======
 = 0.6698E-02(WHEN MIN. R.F.=1)  AT K=   3, I=   2, J=  30
     1 CALLS TO GCG PACKAGE FOR TRANSPORT TIME STEP   7 IN FLOW TIME STEP  66 STRESS PERIOD   2
    15 TOTAL ITERATIONS
>>>>>>> Stashed changes
 
 SOLVING FOR HEAD 
 FLOW MODEL IS TRANSIENT
 FLOW MODEL CONTAINS CONSTANT-HEAD CELLS


 MAXIMUM STEPSIZE DURING WHICH ANY PARTICLE CANNOT MOVE MORE THAN ONE CELL
<<<<<<< Updated upstream
 = 0.1633    (WHEN MIN. R.F.=1)  AT K=   3, I=   2, J=  29

 MAXIMUM STEPSIZE WHICH MEETS STABILITY CRITERION OF THE ADVECTION TERM
 (FOR PURE FINITE-DIFFERENCE OPTION, MIXELM=0) 
 = 0.1132    (WHEN MIN. R.F.=1)  AT K=   3, I=   2, J=  28
=======
 = 0.1869    (WHEN MIN. R.F.=1)  AT K=   3, I=   2, J=  31

 MAXIMUM STEPSIZE WHICH MEETS STABILITY CRITERION OF THE ADVECTION TERM
 (FOR PURE FINITE-DIFFERENCE OPTION, MIXELM=0) 
 = 0.1248    (WHEN MIN. R.F.=1)  AT K=   3, I=   2, J=  30
>>>>>>> Stashed changes


 TOTAL NUMBER OF POINT SOURCES/SINKS PRESENT IN THE FLOW MODEL =   240

 MAXIMUM STEPSIZE WHICH MEETS STABILITY CRITERION OF THE SINK & SOURCE TERM
 = 0.1000E+31(WHEN MIN. R.F.=1)  AT K=   0, I=   0, J=   0

 MAXIMUM STEPSIZE WHICH MEETS STABILITY CRITERION OF THE DISPERSION TERM
<<<<<<< Updated upstream
 = 0.6196E-02(WHEN MIN. R.F.=1)  AT K=   3, I=   2, J=  31


     1 CALLS TO GCG PACKAGE FOR TRANSPORT TIME STEP   1 IN FLOW TIME STEP  70 STRESS PERIOD   2
    15 TOTAL ITERATIONS

 NO OUTPUT CONTROL FOR STRESS PERIOD    2   TIME STEP  70
=======
 = 0.6698E-02(WHEN MIN. R.F.=1)  AT K=   3, I=   2, J=  30
     1 CALLS TO GCG PACKAGE FOR TRANSPORT TIME STEP   8 IN FLOW TIME STEP  66 STRESS PERIOD   2
     5 TOTAL ITERATIONS
  MAXIMUM CONCENTRATION CHANGES FOR EACH ITERATION:
  MAX. CHANGE LAYER,ROW,COL MAX. CHANGE LAYER,ROW,COL MAX. CHANGE LAYER,ROW,COL MAX. CHANGE LAYER,ROW,COL MAX. CHANGE LAYER,ROW,COL
 ------------------------------------------------------------------------------------------------------------------------------------
   0.1387E-03 ( 17,  1, 52)  0.3981E-05 (  5,  2, 62)  0.7375E-06 (  4,  2, 54)  0.2394E-06 (  3,  2, 37)  0.7308E-07 (  4,  2, 31)
 UBDSV1 SAVING "         STORAGE" ON UNIT  53 AT TIME STEP 66, STRESS PERIOD   2
 UBDSV2 SAVING "   CONSTANT HEAD" ON UNIT  53 AT TIME STEP 66, STRESS PERIOD   2
 UBDSV1 SAVING "FLOW RIGHT FACE " ON UNIT  53 AT TIME STEP 66, STRESS PERIOD   2
 UBDSV1 SAVING "FLOW FRONT FACE " ON UNIT  53 AT TIME STEP 66, STRESS PERIOD   2
 UBDSV1 SAVING "FLOW LOWER FACE " ON UNIT  53 AT TIME STEP 66, STRESS PERIOD   2
 UBDSV1 SAVING "            DCDT" ON UNIT  53 AT TIME STEP 66, STRESS PERIOD   2

 HEAD WILL BE SAVED ON UNIT   51 AT END OF TIME STEP  66, STRESS PERIOD    2


                                          ================================================
                                                         FROM TIME =   67.000     TO    68.000    

>>>>>>> Stashed changes
 
 SOLVING FOR HEAD 
 FLOW MODEL IS TRANSIENT
 FLOW MODEL CONTAINS CONSTANT-HEAD CELLS


 MAXIMUM STEPSIZE DURING WHICH ANY PARTICLE CANNOT MOVE MORE THAN ONE CELL
<<<<<<< Updated upstream
 = 0.1633    (WHEN MIN. R.F.=1)  AT K=   3, I=   2, J=  29

 MAXIMUM STEPSIZE WHICH MEETS STABILITY CRITERION OF THE ADVECTION TERM
 (FOR PURE FINITE-DIFFERENCE OPTION, MIXELM=0) 
 = 0.1132    (WHEN MIN. R.F.=1)  AT K=   3, I=   2, J=  28
=======
 = 0.1869    (WHEN MIN. R.F.=1)  AT K=   3, I=   2, J=  31

 MAXIMUM STEPSIZE WHICH MEETS STABILITY CRITERION OF THE ADVECTION TERM
 (FOR PURE FINITE-DIFFERENCE OPTION, MIXELM=0) 
 = 0.1248    (WHEN MIN. R.F.=1)  AT K=   3, I=   2, J=  30
>>>>>>> Stashed changes


 TOTAL NUMBER OF POINT SOURCES/SINKS PRESENT IN THE FLOW MODEL =   240

 MAXIMUM STEPSIZE WHICH MEETS STABILITY CRITERION OF THE SINK & SOURCE TERM
 = 0.1000E+31(WHEN MIN. R.F.=1)  AT K=   0, I=   0, J=   0

 MAXIMUM STEPSIZE WHICH MEETS STABILITY CRITERION OF THE DISPERSION TERM
<<<<<<< Updated upstream
 = 0.6196E-02(WHEN MIN. R.F.=1)  AT K=   3, I=   2, J=  31
     1 CALLS TO GCG PACKAGE FOR TRANSPORT TIME STEP   2 IN FLOW TIME STEP  70 STRESS PERIOD   2
    14 TOTAL ITERATIONS
=======
 = 0.6698E-02(WHEN MIN. R.F.=1)  AT K=   3, I=   2, J=  30


     1 CALLS TO GCG PACKAGE FOR TRANSPORT TIME STEP   1 IN FLOW TIME STEP  67 STRESS PERIOD   2
    15 TOTAL ITERATIONS

 OUTPUT CONTROL FOR STRESS PERIOD    2   TIME STEP  67
    SAVE HEAD FOR ALL LAYERS
    SAVE BUDGET
>>>>>>> Stashed changes
 
 SOLVING FOR HEAD 
 FLOW MODEL IS TRANSIENT
 FLOW MODEL CONTAINS CONSTANT-HEAD CELLS


 MAXIMUM STEPSIZE DURING WHICH ANY PARTICLE CANNOT MOVE MORE THAN ONE CELL
<<<<<<< Updated upstream
 = 0.1633    (WHEN MIN. R.F.=1)  AT K=   3, I=   2, J=  29

 MAXIMUM STEPSIZE WHICH MEETS STABILITY CRITERION OF THE ADVECTION TERM
 (FOR PURE FINITE-DIFFERENCE OPTION, MIXELM=0) 
 = 0.1132    (WHEN MIN. R.F.=1)  AT K=   3, I=   2, J=  28
=======
 = 0.1869    (WHEN MIN. R.F.=1)  AT K=   3, I=   2, J=  31

 MAXIMUM STEPSIZE WHICH MEETS STABILITY CRITERION OF THE ADVECTION TERM
 (FOR PURE FINITE-DIFFERENCE OPTION, MIXELM=0) 
 = 0.1248    (WHEN MIN. R.F.=1)  AT K=   3, I=   2, J=  30
>>>>>>> Stashed changes


 TOTAL NUMBER OF POINT SOURCES/SINKS PRESENT IN THE FLOW MODEL =   240

 MAXIMUM STEPSIZE WHICH MEETS STABILITY CRITERION OF THE SINK & SOURCE TERM
 = 0.1000E+31(WHEN MIN. R.F.=1)  AT K=   0, I=   0, J=   0

 MAXIMUM STEPSIZE WHICH MEETS STABILITY CRITERION OF THE DISPERSION TERM
<<<<<<< Updated upstream
 = 0.6196E-02(WHEN MIN. R.F.=1)  AT K=   3, I=   2, J=  31
     1 CALLS TO GCG PACKAGE FOR TRANSPORT TIME STEP   3 IN FLOW TIME STEP  70 STRESS PERIOD   2
    14 TOTAL ITERATIONS
=======
 = 0.6698E-02(WHEN MIN. R.F.=1)  AT K=   3, I=   2, J=  30
     1 CALLS TO GCG PACKAGE FOR TRANSPORT TIME STEP   2 IN FLOW TIME STEP  67 STRESS PERIOD   2
    15 TOTAL ITERATIONS
>>>>>>> Stashed changes
 
 SOLVING FOR HEAD 
 FLOW MODEL IS TRANSIENT
 FLOW MODEL CONTAINS CONSTANT-HEAD CELLS


 MAXIMUM STEPSIZE DURING WHICH ANY PARTICLE CANNOT MOVE MORE THAN ONE CELL
<<<<<<< Updated upstream
 = 0.1633    (WHEN MIN. R.F.=1)  AT K=   3, I=   2, J=  29

 MAXIMUM STEPSIZE WHICH MEETS STABILITY CRITERION OF THE ADVECTION TERM
 (FOR PURE FINITE-DIFFERENCE OPTION, MIXELM=0) 
 = 0.1132    (WHEN MIN. R.F.=1)  AT K=   3, I=   2, J=  28
=======
 = 0.1869    (WHEN MIN. R.F.=1)  AT K=   3, I=   2, J=  31

 MAXIMUM STEPSIZE WHICH MEETS STABILITY CRITERION OF THE ADVECTION TERM
 (FOR PURE FINITE-DIFFERENCE OPTION, MIXELM=0) 
 = 0.1248    (WHEN MIN. R.F.=1)  AT K=   3, I=   2, J=  30
>>>>>>> Stashed changes


 TOTAL NUMBER OF POINT SOURCES/SINKS PRESENT IN THE FLOW MODEL =   240

 MAXIMUM STEPSIZE WHICH MEETS STABILITY CRITERION OF THE SINK & SOURCE TERM
 = 0.1000E+31(WHEN MIN. R.F.=1)  AT K=   0, I=   0, J=   0

 MAXIMUM STEPSIZE WHICH MEETS STABILITY CRITERION OF THE DISPERSION TERM
<<<<<<< Updated upstream
 = 0.6196E-02(WHEN MIN. R.F.=1)  AT K=   3, I=   2, J=  31
     1 CALLS TO GCG PACKAGE FOR TRANSPORT TIME STEP   4 IN FLOW TIME STEP  70 STRESS PERIOD   2
=======
 = 0.6698E-02(WHEN MIN. R.F.=1)  AT K=   3, I=   2, J=  30
     1 CALLS TO GCG PACKAGE FOR TRANSPORT TIME STEP   3 IN FLOW TIME STEP  67 STRESS PERIOD   2
>>>>>>> Stashed changes
    15 TOTAL ITERATIONS
 
 SOLVING FOR HEAD 
 FLOW MODEL IS TRANSIENT
 FLOW MODEL CONTAINS CONSTANT-HEAD CELLS


 MAXIMUM STEPSIZE DURING WHICH ANY PARTICLE CANNOT MOVE MORE THAN ONE CELL
<<<<<<< Updated upstream
 = 0.1633    (WHEN MIN. R.F.=1)  AT K=   3, I=   2, J=  29

 MAXIMUM STEPSIZE WHICH MEETS STABILITY CRITERION OF THE ADVECTION TERM
 (FOR PURE FINITE-DIFFERENCE OPTION, MIXELM=0) 
 = 0.1132    (WHEN MIN. R.F.=1)  AT K=   3, I=   2, J=  28
=======
 = 0.1869    (WHEN MIN. R.F.=1)  AT K=   3, I=   2, J=  31

 MAXIMUM STEPSIZE WHICH MEETS STABILITY CRITERION OF THE ADVECTION TERM
 (FOR PURE FINITE-DIFFERENCE OPTION, MIXELM=0) 
 = 0.1248    (WHEN MIN. R.F.=1)  AT K=   3, I=   2, J=  30
>>>>>>> Stashed changes


 TOTAL NUMBER OF POINT SOURCES/SINKS PRESENT IN THE FLOW MODEL =   240

 MAXIMUM STEPSIZE WHICH MEETS STABILITY CRITERION OF THE SINK & SOURCE TERM
 = 0.1000E+31(WHEN MIN. R.F.=1)  AT K=   0, I=   0, J=   0

 MAXIMUM STEPSIZE WHICH MEETS STABILITY CRITERION OF THE DISPERSION TERM
<<<<<<< Updated upstream
 = 0.6196E-02(WHEN MIN. R.F.=1)  AT K=   3, I=   2, J=  31
     1 CALLS TO GCG PACKAGE FOR TRANSPORT TIME STEP   5 IN FLOW TIME STEP  70 STRESS PERIOD   2
=======
 = 0.6698E-02(WHEN MIN. R.F.=1)  AT K=   3, I=   2, J=  30
     1 CALLS TO GCG PACKAGE FOR TRANSPORT TIME STEP   4 IN FLOW TIME STEP  67 STRESS PERIOD   2
>>>>>>> Stashed changes
    14 TOTAL ITERATIONS
 
 SOLVING FOR HEAD 
 FLOW MODEL IS TRANSIENT
 FLOW MODEL CONTAINS CONSTANT-HEAD CELLS


 MAXIMUM STEPSIZE DURING WHICH ANY PARTICLE CANNOT MOVE MORE THAN ONE CELL
<<<<<<< Updated upstream
 = 0.1633    (WHEN MIN. R.F.=1)  AT K=   3, I=   2, J=  29

 MAXIMUM STEPSIZE WHICH MEETS STABILITY CRITERION OF THE ADVECTION TERM
 (FOR PURE FINITE-DIFFERENCE OPTION, MIXELM=0) 
 = 0.1132    (WHEN MIN. R.F.=1)  AT K=   3, I=   2, J=  28
=======
 = 0.1869    (WHEN MIN. R.F.=1)  AT K=   3, I=   2, J=  31

 MAXIMUM STEPSIZE WHICH MEETS STABILITY CRITERION OF THE ADVECTION TERM
 (FOR PURE FINITE-DIFFERENCE OPTION, MIXELM=0) 
 = 0.1248    (WHEN MIN. R.F.=1)  AT K=   3, I=   2, J=  30
>>>>>>> Stashed changes


 TOTAL NUMBER OF POINT SOURCES/SINKS PRESENT IN THE FLOW MODEL =   240

 MAXIMUM STEPSIZE WHICH MEETS STABILITY CRITERION OF THE SINK & SOURCE TERM
 = 0.1000E+31(WHEN MIN. R.F.=1)  AT K=   0, I=   0, J=   0

 MAXIMUM STEPSIZE WHICH MEETS STABILITY CRITERION OF THE DISPERSION TERM
<<<<<<< Updated upstream
 = 0.6196E-02(WHEN MIN. R.F.=1)  AT K=   3, I=   2, J=  31
     1 CALLS TO GCG PACKAGE FOR TRANSPORT TIME STEP   6 IN FLOW TIME STEP  70 STRESS PERIOD   2
    14 TOTAL ITERATIONS
=======
 = 0.6698E-02(WHEN MIN. R.F.=1)  AT K=   3, I=   2, J=  30
     1 CALLS TO GCG PACKAGE FOR TRANSPORT TIME STEP   5 IN FLOW TIME STEP  67 STRESS PERIOD   2
    15 TOTAL ITERATIONS
>>>>>>> Stashed changes
 
 SOLVING FOR HEAD 
 FLOW MODEL IS TRANSIENT
 FLOW MODEL CONTAINS CONSTANT-HEAD CELLS


 MAXIMUM STEPSIZE DURING WHICH ANY PARTICLE CANNOT MOVE MORE THAN ONE CELL
<<<<<<< Updated upstream
 = 0.1633    (WHEN MIN. R.F.=1)  AT K=   3, I=   2, J=  29

 MAXIMUM STEPSIZE WHICH MEETS STABILITY CRITERION OF THE ADVECTION TERM
 (FOR PURE FINITE-DIFFERENCE OPTION, MIXELM=0) 
 = 0.1132    (WHEN MIN. R.F.=1)  AT K=   3, I=   2, J=  28
=======
 = 0.1869    (WHEN MIN. R.F.=1)  AT K=   3, I=   2, J=  31

 MAXIMUM STEPSIZE WHICH MEETS STABILITY CRITERION OF THE ADVECTION TERM
 (FOR PURE FINITE-DIFFERENCE OPTION, MIXELM=0) 
 = 0.1248    (WHEN MIN. R.F.=1)  AT K=   3, I=   2, J=  30
>>>>>>> Stashed changes


 TOTAL NUMBER OF POINT SOURCES/SINKS PRESENT IN THE FLOW MODEL =   240

 MAXIMUM STEPSIZE WHICH MEETS STABILITY CRITERION OF THE SINK & SOURCE TERM
 = 0.1000E+31(WHEN MIN. R.F.=1)  AT K=   0, I=   0, J=   0

 MAXIMUM STEPSIZE WHICH MEETS STABILITY CRITERION OF THE DISPERSION TERM
<<<<<<< Updated upstream
 = 0.6196E-02(WHEN MIN. R.F.=1)  AT K=   3, I=   2, J=  31
     1 CALLS TO GCG PACKAGE FOR TRANSPORT TIME STEP   7 IN FLOW TIME STEP  70 STRESS PERIOD   2
=======
 = 0.6698E-02(WHEN MIN. R.F.=1)  AT K=   3, I=   2, J=  30
     1 CALLS TO GCG PACKAGE FOR TRANSPORT TIME STEP   6 IN FLOW TIME STEP  67 STRESS PERIOD   2
>>>>>>> Stashed changes
    14 TOTAL ITERATIONS
 
 SOLVING FOR HEAD 
 FLOW MODEL IS TRANSIENT
 FLOW MODEL CONTAINS CONSTANT-HEAD CELLS


 MAXIMUM STEPSIZE DURING WHICH ANY PARTICLE CANNOT MOVE MORE THAN ONE CELL
<<<<<<< Updated upstream
 = 0.1633    (WHEN MIN. R.F.=1)  AT K=   3, I=   2, J=  29

 MAXIMUM STEPSIZE WHICH MEETS STABILITY CRITERION OF THE ADVECTION TERM
 (FOR PURE FINITE-DIFFERENCE OPTION, MIXELM=0) 
 = 0.1132    (WHEN MIN. R.F.=1)  AT K=   3, I=   2, J=  28
=======
 = 0.1869    (WHEN MIN. R.F.=1)  AT K=   3, I=   2, J=  31

 MAXIMUM STEPSIZE WHICH MEETS STABILITY CRITERION OF THE ADVECTION TERM
 (FOR PURE FINITE-DIFFERENCE OPTION, MIXELM=0) 
 = 0.1248    (WHEN MIN. R.F.=1)  AT K=   3, I=   2, J=  30
>>>>>>> Stashed changes


 TOTAL NUMBER OF POINT SOURCES/SINKS PRESENT IN THE FLOW MODEL =   240

 MAXIMUM STEPSIZE WHICH MEETS STABILITY CRITERION OF THE SINK & SOURCE TERM
 = 0.1000E+31(WHEN MIN. R.F.=1)  AT K=   0, I=   0, J=   0

 MAXIMUM STEPSIZE WHICH MEETS STABILITY CRITERION OF THE DISPERSION TERM
<<<<<<< Updated upstream
 = 0.6196E-02(WHEN MIN. R.F.=1)  AT K=   3, I=   2, J=  31
     1 CALLS TO GCG PACKAGE FOR TRANSPORT TIME STEP   8 IN FLOW TIME STEP  70 STRESS PERIOD   2
    14 TOTAL ITERATIONS
=======
 = 0.6698E-02(WHEN MIN. R.F.=1)  AT K=   3, I=   2, J=  30
     1 CALLS TO GCG PACKAGE FOR TRANSPORT TIME STEP   7 IN FLOW TIME STEP  67 STRESS PERIOD   2
    18 TOTAL ITERATIONS
>>>>>>> Stashed changes
 
 SOLVING FOR HEAD 
 FLOW MODEL IS TRANSIENT
 FLOW MODEL CONTAINS CONSTANT-HEAD CELLS


 MAXIMUM STEPSIZE DURING WHICH ANY PARTICLE CANNOT MOVE MORE THAN ONE CELL
<<<<<<< Updated upstream
 = 0.1633    (WHEN MIN. R.F.=1)  AT K=   3, I=   2, J=  29

 MAXIMUM STEPSIZE WHICH MEETS STABILITY CRITERION OF THE ADVECTION TERM
 (FOR PURE FINITE-DIFFERENCE OPTION, MIXELM=0) 
 = 0.1132    (WHEN MIN. R.F.=1)  AT K=   3, I=   2, J=  28
=======
 = 0.1869    (WHEN MIN. R.F.=1)  AT K=   3, I=   2, J=  31

 MAXIMUM STEPSIZE WHICH MEETS STABILITY CRITERION OF THE ADVECTION TERM
 (FOR PURE FINITE-DIFFERENCE OPTION, MIXELM=0) 
 = 0.1248    (WHEN MIN. R.F.=1)  AT K=   3, I=   2, J=  30
>>>>>>> Stashed changes


 TOTAL NUMBER OF POINT SOURCES/SINKS PRESENT IN THE FLOW MODEL =   240

 MAXIMUM STEPSIZE WHICH MEETS STABILITY CRITERION OF THE SINK & SOURCE TERM
 = 0.1000E+31(WHEN MIN. R.F.=1)  AT K=   0, I=   0, J=   0

 MAXIMUM STEPSIZE WHICH MEETS STABILITY CRITERION OF THE DISPERSION TERM
<<<<<<< Updated upstream
 = 0.6196E-02(WHEN MIN. R.F.=1)  AT K=   3, I=   2, J=  31
     1 CALLS TO GCG PACKAGE FOR TRANSPORT TIME STEP   9 IN FLOW TIME STEP  70 STRESS PERIOD   2
=======
 = 0.6698E-02(WHEN MIN. R.F.=1)  AT K=   3, I=   2, J=  30
     1 CALLS TO GCG PACKAGE FOR TRANSPORT TIME STEP   8 IN FLOW TIME STEP  67 STRESS PERIOD   2
>>>>>>> Stashed changes
     5 TOTAL ITERATIONS
  MAXIMUM CONCENTRATION CHANGES FOR EACH ITERATION:
  MAX. CHANGE LAYER,ROW,COL MAX. CHANGE LAYER,ROW,COL MAX. CHANGE LAYER,ROW,COL MAX. CHANGE LAYER,ROW,COL MAX. CHANGE LAYER,ROW,COL
 ------------------------------------------------------------------------------------------------------------------------------------
<<<<<<< Updated upstream
   0.1440E-03 ( 14,  3, 52)  0.5755E-05 (  5,  2, 64)  0.1091E-05 (  6,  1, 56)  0.1686E-06 (  4,  2, 46)  0.8671E-07 (  3,  3, 28)


                                          ================================================
                                                         FROM TIME =   71.000     TO    72.000    
=======
   0.1379E-03 ( 17,  1, 52)  0.3866E-05 (  5,  2, 62)  0.7137E-06 (  4,  2, 54)  0.2316E-06 (  3,  2, 37)  0.7212E-07 (  4,  2, 37)
 UBDSV1 SAVING "         STORAGE" ON UNIT  53 AT TIME STEP 67, STRESS PERIOD   2
 UBDSV2 SAVING "   CONSTANT HEAD" ON UNIT  53 AT TIME STEP 67, STRESS PERIOD   2
 UBDSV1 SAVING "FLOW RIGHT FACE " ON UNIT  53 AT TIME STEP 67, STRESS PERIOD   2
 UBDSV1 SAVING "FLOW FRONT FACE " ON UNIT  53 AT TIME STEP 67, STRESS PERIOD   2
 UBDSV1 SAVING "FLOW LOWER FACE " ON UNIT  53 AT TIME STEP 67, STRESS PERIOD   2
 UBDSV1 SAVING "            DCDT" ON UNIT  53 AT TIME STEP 67, STRESS PERIOD   2

 HEAD WILL BE SAVED ON UNIT   51 AT END OF TIME STEP  67, STRESS PERIOD    2


                                          ================================================
                                                         FROM TIME =   68.000     TO    69.000    
>>>>>>> Stashed changes

 
 SOLVING FOR HEAD 
 FLOW MODEL IS TRANSIENT
 FLOW MODEL CONTAINS CONSTANT-HEAD CELLS


 MAXIMUM STEPSIZE DURING WHICH ANY PARTICLE CANNOT MOVE MORE THAN ONE CELL
<<<<<<< Updated upstream
 = 0.1633    (WHEN MIN. R.F.=1)  AT K=   3, I=   2, J=  29

 MAXIMUM STEPSIZE WHICH MEETS STABILITY CRITERION OF THE ADVECTION TERM
 (FOR PURE FINITE-DIFFERENCE OPTION, MIXELM=0) 
 = 0.1132    (WHEN MIN. R.F.=1)  AT K=   3, I=   2, J=  28
=======
 = 0.1869    (WHEN MIN. R.F.=1)  AT K=   3, I=   2, J=  31

 MAXIMUM STEPSIZE WHICH MEETS STABILITY CRITERION OF THE ADVECTION TERM
 (FOR PURE FINITE-DIFFERENCE OPTION, MIXELM=0) 
 = 0.1248    (WHEN MIN. R.F.=1)  AT K=   3, I=   2, J=  30
>>>>>>> Stashed changes


 TOTAL NUMBER OF POINT SOURCES/SINKS PRESENT IN THE FLOW MODEL =   240

 MAXIMUM STEPSIZE WHICH MEETS STABILITY CRITERION OF THE SINK & SOURCE TERM
 = 0.1000E+31(WHEN MIN. R.F.=1)  AT K=   0, I=   0, J=   0

 MAXIMUM STEPSIZE WHICH MEETS STABILITY CRITERION OF THE DISPERSION TERM
<<<<<<< Updated upstream
 = 0.6196E-02(WHEN MIN. R.F.=1)  AT K=   3, I=   2, J=  31


     1 CALLS TO GCG PACKAGE FOR TRANSPORT TIME STEP   1 IN FLOW TIME STEP  71 STRESS PERIOD   2
    12 TOTAL ITERATIONS

 NO OUTPUT CONTROL FOR STRESS PERIOD    2   TIME STEP  71
=======
 = 0.6698E-02(WHEN MIN. R.F.=1)  AT K=   3, I=   2, J=  30


     1 CALLS TO GCG PACKAGE FOR TRANSPORT TIME STEP   1 IN FLOW TIME STEP  68 STRESS PERIOD   2
    14 TOTAL ITERATIONS

 OUTPUT CONTROL FOR STRESS PERIOD    2   TIME STEP  68
    SAVE HEAD FOR ALL LAYERS
    SAVE BUDGET
>>>>>>> Stashed changes
 
 SOLVING FOR HEAD 
 FLOW MODEL IS TRANSIENT
 FLOW MODEL CONTAINS CONSTANT-HEAD CELLS


 MAXIMUM STEPSIZE DURING WHICH ANY PARTICLE CANNOT MOVE MORE THAN ONE CELL
<<<<<<< Updated upstream
 = 0.1633    (WHEN MIN. R.F.=1)  AT K=   3, I=   2, J=  29

 MAXIMUM STEPSIZE WHICH MEETS STABILITY CRITERION OF THE ADVECTION TERM
 (FOR PURE FINITE-DIFFERENCE OPTION, MIXELM=0) 
 = 0.1132    (WHEN MIN. R.F.=1)  AT K=   3, I=   2, J=  28
=======
 = 0.1869    (WHEN MIN. R.F.=1)  AT K=   3, I=   2, J=  31

 MAXIMUM STEPSIZE WHICH MEETS STABILITY CRITERION OF THE ADVECTION TERM
 (FOR PURE FINITE-DIFFERENCE OPTION, MIXELM=0) 
 = 0.1248    (WHEN MIN. R.F.=1)  AT K=   3, I=   2, J=  30
>>>>>>> Stashed changes


 TOTAL NUMBER OF POINT SOURCES/SINKS PRESENT IN THE FLOW MODEL =   240

 MAXIMUM STEPSIZE WHICH MEETS STABILITY CRITERION OF THE SINK & SOURCE TERM
 = 0.1000E+31(WHEN MIN. R.F.=1)  AT K=   0, I=   0, J=   0

 MAXIMUM STEPSIZE WHICH MEETS STABILITY CRITERION OF THE DISPERSION TERM
<<<<<<< Updated upstream
 = 0.6196E-02(WHEN MIN. R.F.=1)  AT K=   3, I=   2, J=  31
     1 CALLS TO GCG PACKAGE FOR TRANSPORT TIME STEP   2 IN FLOW TIME STEP  71 STRESS PERIOD   2
=======
 = 0.6698E-02(WHEN MIN. R.F.=1)  AT K=   3, I=   2, J=  30
     1 CALLS TO GCG PACKAGE FOR TRANSPORT TIME STEP   2 IN FLOW TIME STEP  68 STRESS PERIOD   2
>>>>>>> Stashed changes
    14 TOTAL ITERATIONS
 
 SOLVING FOR HEAD 
 FLOW MODEL IS TRANSIENT
 FLOW MODEL CONTAINS CONSTANT-HEAD CELLS


 MAXIMUM STEPSIZE DURING WHICH ANY PARTICLE CANNOT MOVE MORE THAN ONE CELL
<<<<<<< Updated upstream
 = 0.1633    (WHEN MIN. R.F.=1)  AT K=   3, I=   2, J=  29

 MAXIMUM STEPSIZE WHICH MEETS STABILITY CRITERION OF THE ADVECTION TERM
 (FOR PURE FINITE-DIFFERENCE OPTION, MIXELM=0) 
 = 0.1132    (WHEN MIN. R.F.=1)  AT K=   3, I=   2, J=  28
=======
 = 0.1869    (WHEN MIN. R.F.=1)  AT K=   3, I=   2, J=  31

 MAXIMUM STEPSIZE WHICH MEETS STABILITY CRITERION OF THE ADVECTION TERM
 (FOR PURE FINITE-DIFFERENCE OPTION, MIXELM=0) 
 = 0.1248    (WHEN MIN. R.F.=1)  AT K=   3, I=   2, J=  30
>>>>>>> Stashed changes


 TOTAL NUMBER OF POINT SOURCES/SINKS PRESENT IN THE FLOW MODEL =   240

 MAXIMUM STEPSIZE WHICH MEETS STABILITY CRITERION OF THE SINK & SOURCE TERM
 = 0.1000E+31(WHEN MIN. R.F.=1)  AT K=   0, I=   0, J=   0

 MAXIMUM STEPSIZE WHICH MEETS STABILITY CRITERION OF THE DISPERSION TERM
<<<<<<< Updated upstream
 = 0.6196E-02(WHEN MIN. R.F.=1)  AT K=   3, I=   2, J=  31
     1 CALLS TO GCG PACKAGE FOR TRANSPORT TIME STEP   3 IN FLOW TIME STEP  71 STRESS PERIOD   2
    14 TOTAL ITERATIONS
=======
 = 0.6698E-02(WHEN MIN. R.F.=1)  AT K=   3, I=   2, J=  30
     1 CALLS TO GCG PACKAGE FOR TRANSPORT TIME STEP   3 IN FLOW TIME STEP  68 STRESS PERIOD   2
    15 TOTAL ITERATIONS
>>>>>>> Stashed changes
 
 SOLVING FOR HEAD 
 FLOW MODEL IS TRANSIENT
 FLOW MODEL CONTAINS CONSTANT-HEAD CELLS


 MAXIMUM STEPSIZE DURING WHICH ANY PARTICLE CANNOT MOVE MORE THAN ONE CELL
<<<<<<< Updated upstream
 = 0.1633    (WHEN MIN. R.F.=1)  AT K=   3, I=   2, J=  29

 MAXIMUM STEPSIZE WHICH MEETS STABILITY CRITERION OF THE ADVECTION TERM
 (FOR PURE FINITE-DIFFERENCE OPTION, MIXELM=0) 
 = 0.1132    (WHEN MIN. R.F.=1)  AT K=   3, I=   2, J=  28
=======
 = 0.1869    (WHEN MIN. R.F.=1)  AT K=   3, I=   2, J=  31

 MAXIMUM STEPSIZE WHICH MEETS STABILITY CRITERION OF THE ADVECTION TERM
 (FOR PURE FINITE-DIFFERENCE OPTION, MIXELM=0) 
 = 0.1248    (WHEN MIN. R.F.=1)  AT K=   3, I=   2, J=  30
>>>>>>> Stashed changes


 TOTAL NUMBER OF POINT SOURCES/SINKS PRESENT IN THE FLOW MODEL =   240

 MAXIMUM STEPSIZE WHICH MEETS STABILITY CRITERION OF THE SINK & SOURCE TERM
 = 0.1000E+31(WHEN MIN. R.F.=1)  AT K=   0, I=   0, J=   0

 MAXIMUM STEPSIZE WHICH MEETS STABILITY CRITERION OF THE DISPERSION TERM
<<<<<<< Updated upstream
 = 0.6196E-02(WHEN MIN. R.F.=1)  AT K=   3, I=   2, J=  31
     1 CALLS TO GCG PACKAGE FOR TRANSPORT TIME STEP   4 IN FLOW TIME STEP  71 STRESS PERIOD   2
=======
 = 0.6698E-02(WHEN MIN. R.F.=1)  AT K=   3, I=   2, J=  30
     1 CALLS TO GCG PACKAGE FOR TRANSPORT TIME STEP   4 IN FLOW TIME STEP  68 STRESS PERIOD   2
>>>>>>> Stashed changes
    14 TOTAL ITERATIONS
 
 SOLVING FOR HEAD 
 FLOW MODEL IS TRANSIENT
 FLOW MODEL CONTAINS CONSTANT-HEAD CELLS


 MAXIMUM STEPSIZE DURING WHICH ANY PARTICLE CANNOT MOVE MORE THAN ONE CELL
<<<<<<< Updated upstream
 = 0.1633    (WHEN MIN. R.F.=1)  AT K=   3, I=   2, J=  29

 MAXIMUM STEPSIZE WHICH MEETS STABILITY CRITERION OF THE ADVECTION TERM
 (FOR PURE FINITE-DIFFERENCE OPTION, MIXELM=0) 
 = 0.1132    (WHEN MIN. R.F.=1)  AT K=   3, I=   2, J=  28
=======
 = 0.1869    (WHEN MIN. R.F.=1)  AT K=   3, I=   2, J=  31

 MAXIMUM STEPSIZE WHICH MEETS STABILITY CRITERION OF THE ADVECTION TERM
 (FOR PURE FINITE-DIFFERENCE OPTION, MIXELM=0) 
 = 0.1248    (WHEN MIN. R.F.=1)  AT K=   3, I=   2, J=  30
>>>>>>> Stashed changes


 TOTAL NUMBER OF POINT SOURCES/SINKS PRESENT IN THE FLOW MODEL =   240

 MAXIMUM STEPSIZE WHICH MEETS STABILITY CRITERION OF THE SINK & SOURCE TERM
 = 0.1000E+31(WHEN MIN. R.F.=1)  AT K=   0, I=   0, J=   0

 MAXIMUM STEPSIZE WHICH MEETS STABILITY CRITERION OF THE DISPERSION TERM
<<<<<<< Updated upstream
 = 0.6196E-02(WHEN MIN. R.F.=1)  AT K=   3, I=   2, J=  31
     1 CALLS TO GCG PACKAGE FOR TRANSPORT TIME STEP   5 IN FLOW TIME STEP  71 STRESS PERIOD   2
=======
 = 0.6698E-02(WHEN MIN. R.F.=1)  AT K=   3, I=   2, J=  30
     1 CALLS TO GCG PACKAGE FOR TRANSPORT TIME STEP   5 IN FLOW TIME STEP  68 STRESS PERIOD   2
>>>>>>> Stashed changes
    14 TOTAL ITERATIONS
 
 SOLVING FOR HEAD 
 FLOW MODEL IS TRANSIENT
 FLOW MODEL CONTAINS CONSTANT-HEAD CELLS


 MAXIMUM STEPSIZE DURING WHICH ANY PARTICLE CANNOT MOVE MORE THAN ONE CELL
<<<<<<< Updated upstream
 = 0.1633    (WHEN MIN. R.F.=1)  AT K=   3, I=   2, J=  29

 MAXIMUM STEPSIZE WHICH MEETS STABILITY CRITERION OF THE ADVECTION TERM
 (FOR PURE FINITE-DIFFERENCE OPTION, MIXELM=0) 
 = 0.1132    (WHEN MIN. R.F.=1)  AT K=   3, I=   2, J=  28
=======
 = 0.1869    (WHEN MIN. R.F.=1)  AT K=   3, I=   2, J=  31

 MAXIMUM STEPSIZE WHICH MEETS STABILITY CRITERION OF THE ADVECTION TERM
 (FOR PURE FINITE-DIFFERENCE OPTION, MIXELM=0) 
 = 0.1248    (WHEN MIN. R.F.=1)  AT K=   3, I=   2, J=  30
>>>>>>> Stashed changes


 TOTAL NUMBER OF POINT SOURCES/SINKS PRESENT IN THE FLOW MODEL =   240

 MAXIMUM STEPSIZE WHICH MEETS STABILITY CRITERION OF THE SINK & SOURCE TERM
 = 0.1000E+31(WHEN MIN. R.F.=1)  AT K=   0, I=   0, J=   0

 MAXIMUM STEPSIZE WHICH MEETS STABILITY CRITERION OF THE DISPERSION TERM
<<<<<<< Updated upstream
 = 0.6195E-02(WHEN MIN. R.F.=1)  AT K=   3, I=   2, J=  31
     1 CALLS TO GCG PACKAGE FOR TRANSPORT TIME STEP   6 IN FLOW TIME STEP  71 STRESS PERIOD   2
    14 TOTAL ITERATIONS
=======
 = 0.6698E-02(WHEN MIN. R.F.=1)  AT K=   3, I=   2, J=  30
     1 CALLS TO GCG PACKAGE FOR TRANSPORT TIME STEP   6 IN FLOW TIME STEP  68 STRESS PERIOD   2
    15 TOTAL ITERATIONS
>>>>>>> Stashed changes
 
 SOLVING FOR HEAD 
 FLOW MODEL IS TRANSIENT
 FLOW MODEL CONTAINS CONSTANT-HEAD CELLS


 MAXIMUM STEPSIZE DURING WHICH ANY PARTICLE CANNOT MOVE MORE THAN ONE CELL
<<<<<<< Updated upstream
 = 0.1633    (WHEN MIN. R.F.=1)  AT K=   3, I=   2, J=  29

 MAXIMUM STEPSIZE WHICH MEETS STABILITY CRITERION OF THE ADVECTION TERM
 (FOR PURE FINITE-DIFFERENCE OPTION, MIXELM=0) 
 = 0.1132    (WHEN MIN. R.F.=1)  AT K=   3, I=   2, J=  28
=======
 = 0.1869    (WHEN MIN. R.F.=1)  AT K=   3, I=   2, J=  31

 MAXIMUM STEPSIZE WHICH MEETS STABILITY CRITERION OF THE ADVECTION TERM
 (FOR PURE FINITE-DIFFERENCE OPTION, MIXELM=0) 
 = 0.1248    (WHEN MIN. R.F.=1)  AT K=   3, I=   2, J=  30
>>>>>>> Stashed changes


 TOTAL NUMBER OF POINT SOURCES/SINKS PRESENT IN THE FLOW MODEL =   240

 MAXIMUM STEPSIZE WHICH MEETS STABILITY CRITERION OF THE SINK & SOURCE TERM
 = 0.1000E+31(WHEN MIN. R.F.=1)  AT K=   0, I=   0, J=   0

 MAXIMUM STEPSIZE WHICH MEETS STABILITY CRITERION OF THE DISPERSION TERM
<<<<<<< Updated upstream
 = 0.6195E-02(WHEN MIN. R.F.=1)  AT K=   3, I=   2, J=  31
     1 CALLS TO GCG PACKAGE FOR TRANSPORT TIME STEP   7 IN FLOW TIME STEP  71 STRESS PERIOD   2
=======
 = 0.6698E-02(WHEN MIN. R.F.=1)  AT K=   3, I=   2, J=  30
     1 CALLS TO GCG PACKAGE FOR TRANSPORT TIME STEP   7 IN FLOW TIME STEP  68 STRESS PERIOD   2
>>>>>>> Stashed changes
    14 TOTAL ITERATIONS
 
 SOLVING FOR HEAD 
 FLOW MODEL IS TRANSIENT
 FLOW MODEL CONTAINS CONSTANT-HEAD CELLS


 MAXIMUM STEPSIZE DURING WHICH ANY PARTICLE CANNOT MOVE MORE THAN ONE CELL
<<<<<<< Updated upstream
 = 0.1633    (WHEN MIN. R.F.=1)  AT K=   3, I=   2, J=  29

 MAXIMUM STEPSIZE WHICH MEETS STABILITY CRITERION OF THE ADVECTION TERM
 (FOR PURE FINITE-DIFFERENCE OPTION, MIXELM=0) 
 = 0.1132    (WHEN MIN. R.F.=1)  AT K=   3, I=   2, J=  28
=======
 = 0.1869    (WHEN MIN. R.F.=1)  AT K=   3, I=   2, J=  31

 MAXIMUM STEPSIZE WHICH MEETS STABILITY CRITERION OF THE ADVECTION TERM
 (FOR PURE FINITE-DIFFERENCE OPTION, MIXELM=0) 
 = 0.1248    (WHEN MIN. R.F.=1)  AT K=   3, I=   2, J=  30
>>>>>>> Stashed changes


 TOTAL NUMBER OF POINT SOURCES/SINKS PRESENT IN THE FLOW MODEL =   240

 MAXIMUM STEPSIZE WHICH MEETS STABILITY CRITERION OF THE SINK & SOURCE TERM
 = 0.1000E+31(WHEN MIN. R.F.=1)  AT K=   0, I=   0, J=   0

 MAXIMUM STEPSIZE WHICH MEETS STABILITY CRITERION OF THE DISPERSION TERM
<<<<<<< Updated upstream
 = 0.6195E-02(WHEN MIN. R.F.=1)  AT K=   3, I=   2, J=  31
     1 CALLS TO GCG PACKAGE FOR TRANSPORT TIME STEP   8 IN FLOW TIME STEP  71 STRESS PERIOD   2
    14 TOTAL ITERATIONS
=======
 = 0.6698E-02(WHEN MIN. R.F.=1)  AT K=   3, I=   2, J=  30
     1 CALLS TO GCG PACKAGE FOR TRANSPORT TIME STEP   8 IN FLOW TIME STEP  68 STRESS PERIOD   2
     5 TOTAL ITERATIONS
  MAXIMUM CONCENTRATION CHANGES FOR EACH ITERATION:
  MAX. CHANGE LAYER,ROW,COL MAX. CHANGE LAYER,ROW,COL MAX. CHANGE LAYER,ROW,COL MAX. CHANGE LAYER,ROW,COL MAX. CHANGE LAYER,ROW,COL
 ------------------------------------------------------------------------------------------------------------------------------------
   0.1356E-03 ( 17,  1, 52)  0.3756E-05 (  5,  2, 62)  0.6912E-06 (  4,  2, 54)  0.2163E-06 (  3,  2, 40)  0.8037E-07 (  4,  1, 31)
 UBDSV1 SAVING "         STORAGE" ON UNIT  53 AT TIME STEP 68, STRESS PERIOD   2
 UBDSV2 SAVING "   CONSTANT HEAD" ON UNIT  53 AT TIME STEP 68, STRESS PERIOD   2
 UBDSV1 SAVING "FLOW RIGHT FACE " ON UNIT  53 AT TIME STEP 68, STRESS PERIOD   2
 UBDSV1 SAVING "FLOW FRONT FACE " ON UNIT  53 AT TIME STEP 68, STRESS PERIOD   2
 UBDSV1 SAVING "FLOW LOWER FACE " ON UNIT  53 AT TIME STEP 68, STRESS PERIOD   2
 UBDSV1 SAVING "            DCDT" ON UNIT  53 AT TIME STEP 68, STRESS PERIOD   2

 HEAD WILL BE SAVED ON UNIT   51 AT END OF TIME STEP  68, STRESS PERIOD    2


                                          ================================================
                                                         FROM TIME =   69.000     TO    70.000    

>>>>>>> Stashed changes
 
 SOLVING FOR HEAD 
 FLOW MODEL IS TRANSIENT
 FLOW MODEL CONTAINS CONSTANT-HEAD CELLS


 MAXIMUM STEPSIZE DURING WHICH ANY PARTICLE CANNOT MOVE MORE THAN ONE CELL
<<<<<<< Updated upstream
 = 0.1633    (WHEN MIN. R.F.=1)  AT K=   3, I=   2, J=  29

 MAXIMUM STEPSIZE WHICH MEETS STABILITY CRITERION OF THE ADVECTION TERM
 (FOR PURE FINITE-DIFFERENCE OPTION, MIXELM=0) 
 = 0.1132    (WHEN MIN. R.F.=1)  AT K=   3, I=   2, J=  28
=======
 = 0.1869    (WHEN MIN. R.F.=1)  AT K=   3, I=   2, J=  31

 MAXIMUM STEPSIZE WHICH MEETS STABILITY CRITERION OF THE ADVECTION TERM
 (FOR PURE FINITE-DIFFERENCE OPTION, MIXELM=0) 
 = 0.1248    (WHEN MIN. R.F.=1)  AT K=   3, I=   2, J=  30
>>>>>>> Stashed changes


 TOTAL NUMBER OF POINT SOURCES/SINKS PRESENT IN THE FLOW MODEL =   240

 MAXIMUM STEPSIZE WHICH MEETS STABILITY CRITERION OF THE SINK & SOURCE TERM
 = 0.1000E+31(WHEN MIN. R.F.=1)  AT K=   0, I=   0, J=   0

 MAXIMUM STEPSIZE WHICH MEETS STABILITY CRITERION OF THE DISPERSION TERM
<<<<<<< Updated upstream
 = 0.6195E-02(WHEN MIN. R.F.=1)  AT K=   3, I=   2, J=  31
     1 CALLS TO GCG PACKAGE FOR TRANSPORT TIME STEP   9 IN FLOW TIME STEP  71 STRESS PERIOD   2
     5 TOTAL ITERATIONS
  MAXIMUM CONCENTRATION CHANGES FOR EACH ITERATION:
  MAX. CHANGE LAYER,ROW,COL MAX. CHANGE LAYER,ROW,COL MAX. CHANGE LAYER,ROW,COL MAX. CHANGE LAYER,ROW,COL MAX. CHANGE LAYER,ROW,COL
 ------------------------------------------------------------------------------------------------------------------------------------
   0.1429E-03 ( 14,  3, 52)  0.5604E-05 (  5,  2, 64)  0.1058E-05 (  6,  1, 56)  0.1598E-06 (  4,  2, 46)  0.8297E-07 (  3,  3, 30)


                                          ================================================
                                                         FROM TIME =   72.000     TO    73.000    

=======
 = 0.6698E-02(WHEN MIN. R.F.=1)  AT K=   3, I=   2, J=  30


     1 CALLS TO GCG PACKAGE FOR TRANSPORT TIME STEP   1 IN FLOW TIME STEP  69 STRESS PERIOD   2
    14 TOTAL ITERATIONS

 OUTPUT CONTROL FOR STRESS PERIOD    2   TIME STEP  69
    SAVE HEAD FOR ALL LAYERS
    SAVE BUDGET
>>>>>>> Stashed changes
 
 SOLVING FOR HEAD 
 FLOW MODEL IS TRANSIENT
 FLOW MODEL CONTAINS CONSTANT-HEAD CELLS


 MAXIMUM STEPSIZE DURING WHICH ANY PARTICLE CANNOT MOVE MORE THAN ONE CELL
<<<<<<< Updated upstream
 = 0.1633    (WHEN MIN. R.F.=1)  AT K=   3, I=   2, J=  29

 MAXIMUM STEPSIZE WHICH MEETS STABILITY CRITERION OF THE ADVECTION TERM
 (FOR PURE FINITE-DIFFERENCE OPTION, MIXELM=0) 
 = 0.1132    (WHEN MIN. R.F.=1)  AT K=   3, I=   2, J=  28
=======
 = 0.1869    (WHEN MIN. R.F.=1)  AT K=   3, I=   2, J=  31

 MAXIMUM STEPSIZE WHICH MEETS STABILITY CRITERION OF THE ADVECTION TERM
 (FOR PURE FINITE-DIFFERENCE OPTION, MIXELM=0) 
 = 0.1248    (WHEN MIN. R.F.=1)  AT K=   3, I=   2, J=  30
>>>>>>> Stashed changes


 TOTAL NUMBER OF POINT SOURCES/SINKS PRESENT IN THE FLOW MODEL =   240

 MAXIMUM STEPSIZE WHICH MEETS STABILITY CRITERION OF THE SINK & SOURCE TERM
 = 0.1000E+31(WHEN MIN. R.F.=1)  AT K=   0, I=   0, J=   0

 MAXIMUM STEPSIZE WHICH MEETS STABILITY CRITERION OF THE DISPERSION TERM
<<<<<<< Updated upstream
 = 0.6195E-02(WHEN MIN. R.F.=1)  AT K=   3, I=   2, J=  31


     1 CALLS TO GCG PACKAGE FOR TRANSPORT TIME STEP   1 IN FLOW TIME STEP  72 STRESS PERIOD   2
    14 TOTAL ITERATIONS

 NO OUTPUT CONTROL FOR STRESS PERIOD    2   TIME STEP  72
 
 SOLVING FOR HEAD 
 FLOW MODEL IS TRANSIENT
 FLOW MODEL CONTAINS CONSTANT-HEAD CELLS


 MAXIMUM STEPSIZE DURING WHICH ANY PARTICLE CANNOT MOVE MORE THAN ONE CELL
 = 0.1632    (WHEN MIN. R.F.=1)  AT K=   3, I=   2, J=  29

 MAXIMUM STEPSIZE WHICH MEETS STABILITY CRITERION OF THE ADVECTION TERM
 (FOR PURE FINITE-DIFFERENCE OPTION, MIXELM=0) 
 = 0.1132    (WHEN MIN. R.F.=1)  AT K=   3, I=   2, J=  28


 TOTAL NUMBER OF POINT SOURCES/SINKS PRESENT IN THE FLOW MODEL =   240

 MAXIMUM STEPSIZE WHICH MEETS STABILITY CRITERION OF THE SINK & SOURCE TERM
 = 0.1000E+31(WHEN MIN. R.F.=1)  AT K=   0, I=   0, J=   0

 MAXIMUM STEPSIZE WHICH MEETS STABILITY CRITERION OF THE DISPERSION TERM
 = 0.6195E-02(WHEN MIN. R.F.=1)  AT K=   3, I=   2, J=  31
     1 CALLS TO GCG PACKAGE FOR TRANSPORT TIME STEP   2 IN FLOW TIME STEP  72 STRESS PERIOD   2
    14 TOTAL ITERATIONS
 
 SOLVING FOR HEAD 
 FLOW MODEL IS TRANSIENT
 FLOW MODEL CONTAINS CONSTANT-HEAD CELLS


 MAXIMUM STEPSIZE DURING WHICH ANY PARTICLE CANNOT MOVE MORE THAN ONE CELL
 = 0.1632    (WHEN MIN. R.F.=1)  AT K=   3, I=   2, J=  29

 MAXIMUM STEPSIZE WHICH MEETS STABILITY CRITERION OF THE ADVECTION TERM
 (FOR PURE FINITE-DIFFERENCE OPTION, MIXELM=0) 
 = 0.1132    (WHEN MIN. R.F.=1)  AT K=   3, I=   2, J=  28


 TOTAL NUMBER OF POINT SOURCES/SINKS PRESENT IN THE FLOW MODEL =   240

 MAXIMUM STEPSIZE WHICH MEETS STABILITY CRITERION OF THE SINK & SOURCE TERM
 = 0.1000E+31(WHEN MIN. R.F.=1)  AT K=   0, I=   0, J=   0

 MAXIMUM STEPSIZE WHICH MEETS STABILITY CRITERION OF THE DISPERSION TERM
 = 0.6195E-02(WHEN MIN. R.F.=1)  AT K=   3, I=   2, J=  31
     1 CALLS TO GCG PACKAGE FOR TRANSPORT TIME STEP   3 IN FLOW TIME STEP  72 STRESS PERIOD   2
=======
 = 0.6698E-02(WHEN MIN. R.F.=1)  AT K=   3, I=   2, J=  30
     1 CALLS TO GCG PACKAGE FOR TRANSPORT TIME STEP   2 IN FLOW TIME STEP  69 STRESS PERIOD   2
>>>>>>> Stashed changes
    14 TOTAL ITERATIONS
 
 SOLVING FOR HEAD 
 FLOW MODEL IS TRANSIENT
 FLOW MODEL CONTAINS CONSTANT-HEAD CELLS


 MAXIMUM STEPSIZE DURING WHICH ANY PARTICLE CANNOT MOVE MORE THAN ONE CELL
<<<<<<< Updated upstream
 = 0.1632    (WHEN MIN. R.F.=1)  AT K=   3, I=   2, J=  29

 MAXIMUM STEPSIZE WHICH MEETS STABILITY CRITERION OF THE ADVECTION TERM
 (FOR PURE FINITE-DIFFERENCE OPTION, MIXELM=0) 
 = 0.1132    (WHEN MIN. R.F.=1)  AT K=   3, I=   2, J=  28
=======
 = 0.1869    (WHEN MIN. R.F.=1)  AT K=   3, I=   2, J=  31

 MAXIMUM STEPSIZE WHICH MEETS STABILITY CRITERION OF THE ADVECTION TERM
 (FOR PURE FINITE-DIFFERENCE OPTION, MIXELM=0) 
 = 0.1248    (WHEN MIN. R.F.=1)  AT K=   3, I=   2, J=  30
>>>>>>> Stashed changes


 TOTAL NUMBER OF POINT SOURCES/SINKS PRESENT IN THE FLOW MODEL =   240

 MAXIMUM STEPSIZE WHICH MEETS STABILITY CRITERION OF THE SINK & SOURCE TERM
 = 0.1000E+31(WHEN MIN. R.F.=1)  AT K=   0, I=   0, J=   0

 MAXIMUM STEPSIZE WHICH MEETS STABILITY CRITERION OF THE DISPERSION TERM
<<<<<<< Updated upstream
 = 0.6195E-02(WHEN MIN. R.F.=1)  AT K=   3, I=   2, J=  31
     1 CALLS TO GCG PACKAGE FOR TRANSPORT TIME STEP   4 IN FLOW TIME STEP  72 STRESS PERIOD   2
=======
 = 0.6697E-02(WHEN MIN. R.F.=1)  AT K=   3, I=   2, J=  30
     1 CALLS TO GCG PACKAGE FOR TRANSPORT TIME STEP   3 IN FLOW TIME STEP  69 STRESS PERIOD   2
>>>>>>> Stashed changes
    14 TOTAL ITERATIONS
 
 SOLVING FOR HEAD 
 FLOW MODEL IS TRANSIENT
 FLOW MODEL CONTAINS CONSTANT-HEAD CELLS


 MAXIMUM STEPSIZE DURING WHICH ANY PARTICLE CANNOT MOVE MORE THAN ONE CELL
<<<<<<< Updated upstream
 = 0.1632    (WHEN MIN. R.F.=1)  AT K=   3, I=   2, J=  29

 MAXIMUM STEPSIZE WHICH MEETS STABILITY CRITERION OF THE ADVECTION TERM
 (FOR PURE FINITE-DIFFERENCE OPTION, MIXELM=0) 
 = 0.1132    (WHEN MIN. R.F.=1)  AT K=   3, I=   2, J=  28
=======
 = 0.1869    (WHEN MIN. R.F.=1)  AT K=   3, I=   2, J=  31

 MAXIMUM STEPSIZE WHICH MEETS STABILITY CRITERION OF THE ADVECTION TERM
 (FOR PURE FINITE-DIFFERENCE OPTION, MIXELM=0) 
 = 0.1248    (WHEN MIN. R.F.=1)  AT K=   3, I=   2, J=  30
>>>>>>> Stashed changes


 TOTAL NUMBER OF POINT SOURCES/SINKS PRESENT IN THE FLOW MODEL =   240

 MAXIMUM STEPSIZE WHICH MEETS STABILITY CRITERION OF THE SINK & SOURCE TERM
 = 0.1000E+31(WHEN MIN. R.F.=1)  AT K=   0, I=   0, J=   0

 MAXIMUM STEPSIZE WHICH MEETS STABILITY CRITERION OF THE DISPERSION TERM
<<<<<<< Updated upstream
 = 0.6195E-02(WHEN MIN. R.F.=1)  AT K=   3, I=   2, J=  31
     1 CALLS TO GCG PACKAGE FOR TRANSPORT TIME STEP   5 IN FLOW TIME STEP  72 STRESS PERIOD   2
=======
 = 0.6697E-02(WHEN MIN. R.F.=1)  AT K=   3, I=   2, J=  30
     1 CALLS TO GCG PACKAGE FOR TRANSPORT TIME STEP   4 IN FLOW TIME STEP  69 STRESS PERIOD   2
>>>>>>> Stashed changes
    14 TOTAL ITERATIONS
 
 SOLVING FOR HEAD 
 FLOW MODEL IS TRANSIENT
 FLOW MODEL CONTAINS CONSTANT-HEAD CELLS


 MAXIMUM STEPSIZE DURING WHICH ANY PARTICLE CANNOT MOVE MORE THAN ONE CELL
<<<<<<< Updated upstream
 = 0.1632    (WHEN MIN. R.F.=1)  AT K=   3, I=   2, J=  29

 MAXIMUM STEPSIZE WHICH MEETS STABILITY CRITERION OF THE ADVECTION TERM
 (FOR PURE FINITE-DIFFERENCE OPTION, MIXELM=0) 
 = 0.1132    (WHEN MIN. R.F.=1)  AT K=   3, I=   2, J=  28
=======
 = 0.1869    (WHEN MIN. R.F.=1)  AT K=   3, I=   2, J=  31

 MAXIMUM STEPSIZE WHICH MEETS STABILITY CRITERION OF THE ADVECTION TERM
 (FOR PURE FINITE-DIFFERENCE OPTION, MIXELM=0) 
 = 0.1248    (WHEN MIN. R.F.=1)  AT K=   3, I=   2, J=  30
>>>>>>> Stashed changes


 TOTAL NUMBER OF POINT SOURCES/SINKS PRESENT IN THE FLOW MODEL =   240

 MAXIMUM STEPSIZE WHICH MEETS STABILITY CRITERION OF THE SINK & SOURCE TERM
 = 0.1000E+31(WHEN MIN. R.F.=1)  AT K=   0, I=   0, J=   0

 MAXIMUM STEPSIZE WHICH MEETS STABILITY CRITERION OF THE DISPERSION TERM
<<<<<<< Updated upstream
 = 0.6195E-02(WHEN MIN. R.F.=1)  AT K=   3, I=   2, J=  31
     1 CALLS TO GCG PACKAGE FOR TRANSPORT TIME STEP   6 IN FLOW TIME STEP  72 STRESS PERIOD   2
    14 TOTAL ITERATIONS
=======
 = 0.6697E-02(WHEN MIN. R.F.=1)  AT K=   3, I=   2, J=  30
     1 CALLS TO GCG PACKAGE FOR TRANSPORT TIME STEP   5 IN FLOW TIME STEP  69 STRESS PERIOD   2
    15 TOTAL ITERATIONS
>>>>>>> Stashed changes
 
 SOLVING FOR HEAD 
 FLOW MODEL IS TRANSIENT
 FLOW MODEL CONTAINS CONSTANT-HEAD CELLS


 MAXIMUM STEPSIZE DURING WHICH ANY PARTICLE CANNOT MOVE MORE THAN ONE CELL
<<<<<<< Updated upstream
 = 0.1632    (WHEN MIN. R.F.=1)  AT K=   3, I=   2, J=  29

 MAXIMUM STEPSIZE WHICH MEETS STABILITY CRITERION OF THE ADVECTION TERM
 (FOR PURE FINITE-DIFFERENCE OPTION, MIXELM=0) 
 = 0.1132    (WHEN MIN. R.F.=1)  AT K=   3, I=   2, J=  28
=======
 = 0.1869    (WHEN MIN. R.F.=1)  AT K=   3, I=   2, J=  31

 MAXIMUM STEPSIZE WHICH MEETS STABILITY CRITERION OF THE ADVECTION TERM
 (FOR PURE FINITE-DIFFERENCE OPTION, MIXELM=0) 
 = 0.1248    (WHEN MIN. R.F.=1)  AT K=   3, I=   2, J=  30
>>>>>>> Stashed changes


 TOTAL NUMBER OF POINT SOURCES/SINKS PRESENT IN THE FLOW MODEL =   240

 MAXIMUM STEPSIZE WHICH MEETS STABILITY CRITERION OF THE SINK & SOURCE TERM
 = 0.1000E+31(WHEN MIN. R.F.=1)  AT K=   0, I=   0, J=   0

 MAXIMUM STEPSIZE WHICH MEETS STABILITY CRITERION OF THE DISPERSION TERM
<<<<<<< Updated upstream
 = 0.6195E-02(WHEN MIN. R.F.=1)  AT K=   3, I=   2, J=  31
     1 CALLS TO GCG PACKAGE FOR TRANSPORT TIME STEP   7 IN FLOW TIME STEP  72 STRESS PERIOD   2
=======
 = 0.6697E-02(WHEN MIN. R.F.=1)  AT K=   3, I=   2, J=  30
     1 CALLS TO GCG PACKAGE FOR TRANSPORT TIME STEP   6 IN FLOW TIME STEP  69 STRESS PERIOD   2
>>>>>>> Stashed changes
    14 TOTAL ITERATIONS
 
 SOLVING FOR HEAD 
 FLOW MODEL IS TRANSIENT
 FLOW MODEL CONTAINS CONSTANT-HEAD CELLS


 MAXIMUM STEPSIZE DURING WHICH ANY PARTICLE CANNOT MOVE MORE THAN ONE CELL
<<<<<<< Updated upstream
 = 0.1632    (WHEN MIN. R.F.=1)  AT K=   3, I=   2, J=  29

 MAXIMUM STEPSIZE WHICH MEETS STABILITY CRITERION OF THE ADVECTION TERM
 (FOR PURE FINITE-DIFFERENCE OPTION, MIXELM=0) 
 = 0.1132    (WHEN MIN. R.F.=1)  AT K=   3, I=   2, J=  28
=======
 = 0.1869    (WHEN MIN. R.F.=1)  AT K=   3, I=   2, J=  31

 MAXIMUM STEPSIZE WHICH MEETS STABILITY CRITERION OF THE ADVECTION TERM
 (FOR PURE FINITE-DIFFERENCE OPTION, MIXELM=0) 
 = 0.1248    (WHEN MIN. R.F.=1)  AT K=   3, I=   2, J=  30
>>>>>>> Stashed changes


 TOTAL NUMBER OF POINT SOURCES/SINKS PRESENT IN THE FLOW MODEL =   240

 MAXIMUM STEPSIZE WHICH MEETS STABILITY CRITERION OF THE SINK & SOURCE TERM
 = 0.1000E+31(WHEN MIN. R.F.=1)  AT K=   0, I=   0, J=   0

 MAXIMUM STEPSIZE WHICH MEETS STABILITY CRITERION OF THE DISPERSION TERM
<<<<<<< Updated upstream
 = 0.6195E-02(WHEN MIN. R.F.=1)  AT K=   3, I=   2, J=  31
     1 CALLS TO GCG PACKAGE FOR TRANSPORT TIME STEP   8 IN FLOW TIME STEP  72 STRESS PERIOD   2
=======
 = 0.6697E-02(WHEN MIN. R.F.=1)  AT K=   3, I=   2, J=  30
     1 CALLS TO GCG PACKAGE FOR TRANSPORT TIME STEP   7 IN FLOW TIME STEP  69 STRESS PERIOD   2
>>>>>>> Stashed changes
    14 TOTAL ITERATIONS
 
 SOLVING FOR HEAD 
 FLOW MODEL IS TRANSIENT
 FLOW MODEL CONTAINS CONSTANT-HEAD CELLS


 MAXIMUM STEPSIZE DURING WHICH ANY PARTICLE CANNOT MOVE MORE THAN ONE CELL
<<<<<<< Updated upstream
 = 0.1632    (WHEN MIN. R.F.=1)  AT K=   3, I=   2, J=  29

 MAXIMUM STEPSIZE WHICH MEETS STABILITY CRITERION OF THE ADVECTION TERM
 (FOR PURE FINITE-DIFFERENCE OPTION, MIXELM=0) 
 = 0.1132    (WHEN MIN. R.F.=1)  AT K=   3, I=   2, J=  28
=======
 = 0.1869    (WHEN MIN. R.F.=1)  AT K=   3, I=   2, J=  31

 MAXIMUM STEPSIZE WHICH MEETS STABILITY CRITERION OF THE ADVECTION TERM
 (FOR PURE FINITE-DIFFERENCE OPTION, MIXELM=0) 
 = 0.1248    (WHEN MIN. R.F.=1)  AT K=   3, I=   2, J=  30
>>>>>>> Stashed changes


 TOTAL NUMBER OF POINT SOURCES/SINKS PRESENT IN THE FLOW MODEL =   240

 MAXIMUM STEPSIZE WHICH MEETS STABILITY CRITERION OF THE SINK & SOURCE TERM
 = 0.1000E+31(WHEN MIN. R.F.=1)  AT K=   0, I=   0, J=   0

 MAXIMUM STEPSIZE WHICH MEETS STABILITY CRITERION OF THE DISPERSION TERM
<<<<<<< Updated upstream
 = 0.6195E-02(WHEN MIN. R.F.=1)  AT K=   3, I=   2, J=  31
     1 CALLS TO GCG PACKAGE FOR TRANSPORT TIME STEP   9 IN FLOW TIME STEP  72 STRESS PERIOD   2
=======
 = 0.6697E-02(WHEN MIN. R.F.=1)  AT K=   3, I=   2, J=  30
     1 CALLS TO GCG PACKAGE FOR TRANSPORT TIME STEP   8 IN FLOW TIME STEP  69 STRESS PERIOD   2
>>>>>>> Stashed changes
     5 TOTAL ITERATIONS
  MAXIMUM CONCENTRATION CHANGES FOR EACH ITERATION:
  MAX. CHANGE LAYER,ROW,COL MAX. CHANGE LAYER,ROW,COL MAX. CHANGE LAYER,ROW,COL MAX. CHANGE LAYER,ROW,COL MAX. CHANGE LAYER,ROW,COL
 ------------------------------------------------------------------------------------------------------------------------------------
<<<<<<< Updated upstream
   0.1417E-03 ( 14,  3, 52)  0.5458E-05 (  5,  2, 64)  0.1025E-05 (  6,  1, 56)  0.1531E-06 (  4,  2, 46)  0.7688E-07 (  3,  3, 28)


                                          ================================================
                                                         FROM TIME =   73.000     TO    74.000    
=======
   0.1316E-03 ( 17,  1, 52)  0.3649E-05 (  5,  2, 62)  0.6691E-06 (  4,  2, 54)  0.2126E-06 (  3,  2, 41)  0.6213E-07 (  4,  2, 37)
 UBDSV1 SAVING "         STORAGE" ON UNIT  53 AT TIME STEP 69, STRESS PERIOD   2
 UBDSV2 SAVING "   CONSTANT HEAD" ON UNIT  53 AT TIME STEP 69, STRESS PERIOD   2
 UBDSV1 SAVING "FLOW RIGHT FACE " ON UNIT  53 AT TIME STEP 69, STRESS PERIOD   2
 UBDSV1 SAVING "FLOW FRONT FACE " ON UNIT  53 AT TIME STEP 69, STRESS PERIOD   2
 UBDSV1 SAVING "FLOW LOWER FACE " ON UNIT  53 AT TIME STEP 69, STRESS PERIOD   2
 UBDSV1 SAVING "            DCDT" ON UNIT  53 AT TIME STEP 69, STRESS PERIOD   2

 HEAD WILL BE SAVED ON UNIT   51 AT END OF TIME STEP  69, STRESS PERIOD    2


                                          ================================================
                                                         FROM TIME =   70.000     TO    71.000    
>>>>>>> Stashed changes

 
 SOLVING FOR HEAD 
 FLOW MODEL IS TRANSIENT
 FLOW MODEL CONTAINS CONSTANT-HEAD CELLS


 MAXIMUM STEPSIZE DURING WHICH ANY PARTICLE CANNOT MOVE MORE THAN ONE CELL
<<<<<<< Updated upstream
 = 0.1632    (WHEN MIN. R.F.=1)  AT K=   3, I=   2, J=  29

 MAXIMUM STEPSIZE WHICH MEETS STABILITY CRITERION OF THE ADVECTION TERM
 (FOR PURE FINITE-DIFFERENCE OPTION, MIXELM=0) 
 = 0.1132    (WHEN MIN. R.F.=1)  AT K=   3, I=   2, J=  28
=======
 = 0.1869    (WHEN MIN. R.F.=1)  AT K=   3, I=   2, J=  31

 MAXIMUM STEPSIZE WHICH MEETS STABILITY CRITERION OF THE ADVECTION TERM
 (FOR PURE FINITE-DIFFERENCE OPTION, MIXELM=0) 
 = 0.1248    (WHEN MIN. R.F.=1)  AT K=   3, I=   2, J=  30
>>>>>>> Stashed changes


 TOTAL NUMBER OF POINT SOURCES/SINKS PRESENT IN THE FLOW MODEL =   240

 MAXIMUM STEPSIZE WHICH MEETS STABILITY CRITERION OF THE SINK & SOURCE TERM
 = 0.1000E+31(WHEN MIN. R.F.=1)  AT K=   0, I=   0, J=   0

 MAXIMUM STEPSIZE WHICH MEETS STABILITY CRITERION OF THE DISPERSION TERM
<<<<<<< Updated upstream
 = 0.6195E-02(WHEN MIN. R.F.=1)  AT K=   3, I=   2, J=  31


     1 CALLS TO GCG PACKAGE FOR TRANSPORT TIME STEP   1 IN FLOW TIME STEP  73 STRESS PERIOD   2
    12 TOTAL ITERATIONS

 NO OUTPUT CONTROL FOR STRESS PERIOD    2   TIME STEP  73
=======
 = 0.6697E-02(WHEN MIN. R.F.=1)  AT K=   3, I=   2, J=  30


     1 CALLS TO GCG PACKAGE FOR TRANSPORT TIME STEP   1 IN FLOW TIME STEP  70 STRESS PERIOD   2
    14 TOTAL ITERATIONS

 OUTPUT CONTROL FOR STRESS PERIOD    2   TIME STEP  70
    SAVE HEAD FOR ALL LAYERS
    SAVE BUDGET
>>>>>>> Stashed changes
 
 SOLVING FOR HEAD 
 FLOW MODEL IS TRANSIENT
 FLOW MODEL CONTAINS CONSTANT-HEAD CELLS


 MAXIMUM STEPSIZE DURING WHICH ANY PARTICLE CANNOT MOVE MORE THAN ONE CELL
<<<<<<< Updated upstream
 = 0.1632    (WHEN MIN. R.F.=1)  AT K=   3, I=   2, J=  29

 MAXIMUM STEPSIZE WHICH MEETS STABILITY CRITERION OF THE ADVECTION TERM
 (FOR PURE FINITE-DIFFERENCE OPTION, MIXELM=0) 
 = 0.1132    (WHEN MIN. R.F.=1)  AT K=   3, I=   2, J=  28
=======
 = 0.1869    (WHEN MIN. R.F.=1)  AT K=   3, I=   2, J=  31

 MAXIMUM STEPSIZE WHICH MEETS STABILITY CRITERION OF THE ADVECTION TERM
 (FOR PURE FINITE-DIFFERENCE OPTION, MIXELM=0) 
 = 0.1248    (WHEN MIN. R.F.=1)  AT K=   3, I=   2, J=  30
>>>>>>> Stashed changes


 TOTAL NUMBER OF POINT SOURCES/SINKS PRESENT IN THE FLOW MODEL =   240

 MAXIMUM STEPSIZE WHICH MEETS STABILITY CRITERION OF THE SINK & SOURCE TERM
 = 0.1000E+31(WHEN MIN. R.F.=1)  AT K=   0, I=   0, J=   0

 MAXIMUM STEPSIZE WHICH MEETS STABILITY CRITERION OF THE DISPERSION TERM
<<<<<<< Updated upstream
 = 0.6195E-02(WHEN MIN. R.F.=1)  AT K=   3, I=   2, J=  31
     1 CALLS TO GCG PACKAGE FOR TRANSPORT TIME STEP   2 IN FLOW TIME STEP  73 STRESS PERIOD   2
=======
 = 0.6697E-02(WHEN MIN. R.F.=1)  AT K=   3, I=   2, J=  30
     1 CALLS TO GCG PACKAGE FOR TRANSPORT TIME STEP   2 IN FLOW TIME STEP  70 STRESS PERIOD   2
>>>>>>> Stashed changes
    14 TOTAL ITERATIONS
 
 SOLVING FOR HEAD 
 FLOW MODEL IS TRANSIENT
 FLOW MODEL CONTAINS CONSTANT-HEAD CELLS


 MAXIMUM STEPSIZE DURING WHICH ANY PARTICLE CANNOT MOVE MORE THAN ONE CELL
<<<<<<< Updated upstream
 = 0.1632    (WHEN MIN. R.F.=1)  AT K=   3, I=   2, J=  29

 MAXIMUM STEPSIZE WHICH MEETS STABILITY CRITERION OF THE ADVECTION TERM
 (FOR PURE FINITE-DIFFERENCE OPTION, MIXELM=0) 
 = 0.1132    (WHEN MIN. R.F.=1)  AT K=   3, I=   2, J=  28
=======
 = 0.1869    (WHEN MIN. R.F.=1)  AT K=   3, I=   2, J=  31

 MAXIMUM STEPSIZE WHICH MEETS STABILITY CRITERION OF THE ADVECTION TERM
 (FOR PURE FINITE-DIFFERENCE OPTION, MIXELM=0) 
 = 0.1248    (WHEN MIN. R.F.=1)  AT K=   3, I=   2, J=  30
>>>>>>> Stashed changes


 TOTAL NUMBER OF POINT SOURCES/SINKS PRESENT IN THE FLOW MODEL =   240

 MAXIMUM STEPSIZE WHICH MEETS STABILITY CRITERION OF THE SINK & SOURCE TERM
 = 0.1000E+31(WHEN MIN. R.F.=1)  AT K=   0, I=   0, J=   0

 MAXIMUM STEPSIZE WHICH MEETS STABILITY CRITERION OF THE DISPERSION TERM
<<<<<<< Updated upstream
 = 0.6195E-02(WHEN MIN. R.F.=1)  AT K=   3, I=   2, J=  31
     1 CALLS TO GCG PACKAGE FOR TRANSPORT TIME STEP   3 IN FLOW TIME STEP  73 STRESS PERIOD   2
    14 TOTAL ITERATIONS
=======
 = 0.6697E-02(WHEN MIN. R.F.=1)  AT K=   3, I=   2, J=  30
     1 CALLS TO GCG PACKAGE FOR TRANSPORT TIME STEP   3 IN FLOW TIME STEP  70 STRESS PERIOD   2
    15 TOTAL ITERATIONS
>>>>>>> Stashed changes
 
 SOLVING FOR HEAD 
 FLOW MODEL IS TRANSIENT
 FLOW MODEL CONTAINS CONSTANT-HEAD CELLS


 MAXIMUM STEPSIZE DURING WHICH ANY PARTICLE CANNOT MOVE MORE THAN ONE CELL
<<<<<<< Updated upstream
 = 0.1632    (WHEN MIN. R.F.=1)  AT K=   3, I=   2, J=  29

 MAXIMUM STEPSIZE WHICH MEETS STABILITY CRITERION OF THE ADVECTION TERM
 (FOR PURE FINITE-DIFFERENCE OPTION, MIXELM=0) 
 = 0.1132    (WHEN MIN. R.F.=1)  AT K=   3, I=   2, J=  28
=======
 = 0.1869    (WHEN MIN. R.F.=1)  AT K=   3, I=   2, J=  31

 MAXIMUM STEPSIZE WHICH MEETS STABILITY CRITERION OF THE ADVECTION TERM
 (FOR PURE FINITE-DIFFERENCE OPTION, MIXELM=0) 
 = 0.1248    (WHEN MIN. R.F.=1)  AT K=   3, I=   2, J=  30
>>>>>>> Stashed changes


 TOTAL NUMBER OF POINT SOURCES/SINKS PRESENT IN THE FLOW MODEL =   240

 MAXIMUM STEPSIZE WHICH MEETS STABILITY CRITERION OF THE SINK & SOURCE TERM
 = 0.1000E+31(WHEN MIN. R.F.=1)  AT K=   0, I=   0, J=   0

 MAXIMUM STEPSIZE WHICH MEETS STABILITY CRITERION OF THE DISPERSION TERM
<<<<<<< Updated upstream
 = 0.6195E-02(WHEN MIN. R.F.=1)  AT K=   3, I=   2, J=  31
     1 CALLS TO GCG PACKAGE FOR TRANSPORT TIME STEP   4 IN FLOW TIME STEP  73 STRESS PERIOD   2
=======
 = 0.6697E-02(WHEN MIN. R.F.=1)  AT K=   3, I=   2, J=  30
     1 CALLS TO GCG PACKAGE FOR TRANSPORT TIME STEP   4 IN FLOW TIME STEP  70 STRESS PERIOD   2
>>>>>>> Stashed changes
    14 TOTAL ITERATIONS
 
 SOLVING FOR HEAD 
 FLOW MODEL IS TRANSIENT
 FLOW MODEL CONTAINS CONSTANT-HEAD CELLS


 MAXIMUM STEPSIZE DURING WHICH ANY PARTICLE CANNOT MOVE MORE THAN ONE CELL
<<<<<<< Updated upstream
 = 0.1632    (WHEN MIN. R.F.=1)  AT K=   3, I=   2, J=  29

 MAXIMUM STEPSIZE WHICH MEETS STABILITY CRITERION OF THE ADVECTION TERM
 (FOR PURE FINITE-DIFFERENCE OPTION, MIXELM=0) 
 = 0.1132    (WHEN MIN. R.F.=1)  AT K=   3, I=   2, J=  28
=======
 = 0.1869    (WHEN MIN. R.F.=1)  AT K=   3, I=   2, J=  31

 MAXIMUM STEPSIZE WHICH MEETS STABILITY CRITERION OF THE ADVECTION TERM
 (FOR PURE FINITE-DIFFERENCE OPTION, MIXELM=0) 
 = 0.1248    (WHEN MIN. R.F.=1)  AT K=   3, I=   2, J=  30
>>>>>>> Stashed changes


 TOTAL NUMBER OF POINT SOURCES/SINKS PRESENT IN THE FLOW MODEL =   240

 MAXIMUM STEPSIZE WHICH MEETS STABILITY CRITERION OF THE SINK & SOURCE TERM
 = 0.1000E+31(WHEN MIN. R.F.=1)  AT K=   0, I=   0, J=   0

 MAXIMUM STEPSIZE WHICH MEETS STABILITY CRITERION OF THE DISPERSION TERM
<<<<<<< Updated upstream
 = 0.6195E-02(WHEN MIN. R.F.=1)  AT K=   3, I=   2, J=  31
     1 CALLS TO GCG PACKAGE FOR TRANSPORT TIME STEP   5 IN FLOW TIME STEP  73 STRESS PERIOD   2
=======
 = 0.6697E-02(WHEN MIN. R.F.=1)  AT K=   3, I=   2, J=  30
     1 CALLS TO GCG PACKAGE FOR TRANSPORT TIME STEP   5 IN FLOW TIME STEP  70 STRESS PERIOD   2
>>>>>>> Stashed changes
    14 TOTAL ITERATIONS
 
 SOLVING FOR HEAD 
 FLOW MODEL IS TRANSIENT
 FLOW MODEL CONTAINS CONSTANT-HEAD CELLS


 MAXIMUM STEPSIZE DURING WHICH ANY PARTICLE CANNOT MOVE MORE THAN ONE CELL
<<<<<<< Updated upstream
 = 0.1632    (WHEN MIN. R.F.=1)  AT K=   3, I=   2, J=  29

 MAXIMUM STEPSIZE WHICH MEETS STABILITY CRITERION OF THE ADVECTION TERM
 (FOR PURE FINITE-DIFFERENCE OPTION, MIXELM=0) 
 = 0.1132    (WHEN MIN. R.F.=1)  AT K=   3, I=   2, J=  28
=======
 = 0.1869    (WHEN MIN. R.F.=1)  AT K=   3, I=   2, J=  31

 MAXIMUM STEPSIZE WHICH MEETS STABILITY CRITERION OF THE ADVECTION TERM
 (FOR PURE FINITE-DIFFERENCE OPTION, MIXELM=0) 
 = 0.1248    (WHEN MIN. R.F.=1)  AT K=   3, I=   2, J=  30
>>>>>>> Stashed changes


 TOTAL NUMBER OF POINT SOURCES/SINKS PRESENT IN THE FLOW MODEL =   240

 MAXIMUM STEPSIZE WHICH MEETS STABILITY CRITERION OF THE SINK & SOURCE TERM
 = 0.1000E+31(WHEN MIN. R.F.=1)  AT K=   0, I=   0, J=   0

 MAXIMUM STEPSIZE WHICH MEETS STABILITY CRITERION OF THE DISPERSION TERM
<<<<<<< Updated upstream
 = 0.6195E-02(WHEN MIN. R.F.=1)  AT K=   3, I=   2, J=  31
     1 CALLS TO GCG PACKAGE FOR TRANSPORT TIME STEP   6 IN FLOW TIME STEP  73 STRESS PERIOD   2
    14 TOTAL ITERATIONS
 
 SOLVING FOR HEAD 
 FLOW MODEL IS TRANSIENT
 FLOW MODEL CONTAINS CONSTANT-HEAD CELLS


 MAXIMUM STEPSIZE DURING WHICH ANY PARTICLE CANNOT MOVE MORE THAN ONE CELL
 = 0.1632    (WHEN MIN. R.F.=1)  AT K=   3, I=   2, J=  29

 MAXIMUM STEPSIZE WHICH MEETS STABILITY CRITERION OF THE ADVECTION TERM
 (FOR PURE FINITE-DIFFERENCE OPTION, MIXELM=0) 
 = 0.1132    (WHEN MIN. R.F.=1)  AT K=   3, I=   2, J=  28


 TOTAL NUMBER OF POINT SOURCES/SINKS PRESENT IN THE FLOW MODEL =   240

 MAXIMUM STEPSIZE WHICH MEETS STABILITY CRITERION OF THE SINK & SOURCE TERM
 = 0.1000E+31(WHEN MIN. R.F.=1)  AT K=   0, I=   0, J=   0

 MAXIMUM STEPSIZE WHICH MEETS STABILITY CRITERION OF THE DISPERSION TERM
 = 0.6195E-02(WHEN MIN. R.F.=1)  AT K=   3, I=   2, J=  31
     1 CALLS TO GCG PACKAGE FOR TRANSPORT TIME STEP   7 IN FLOW TIME STEP  73 STRESS PERIOD   2
=======
 = 0.6697E-02(WHEN MIN. R.F.=1)  AT K=   3, I=   2, J=  30
     1 CALLS TO GCG PACKAGE FOR TRANSPORT TIME STEP   6 IN FLOW TIME STEP  70 STRESS PERIOD   2
>>>>>>> Stashed changes
    14 TOTAL ITERATIONS
 
 SOLVING FOR HEAD 
 FLOW MODEL IS TRANSIENT
 FLOW MODEL CONTAINS CONSTANT-HEAD CELLS


 MAXIMUM STEPSIZE DURING WHICH ANY PARTICLE CANNOT MOVE MORE THAN ONE CELL
<<<<<<< Updated upstream
 = 0.1632    (WHEN MIN. R.F.=1)  AT K=   3, I=   2, J=  29

 MAXIMUM STEPSIZE WHICH MEETS STABILITY CRITERION OF THE ADVECTION TERM
 (FOR PURE FINITE-DIFFERENCE OPTION, MIXELM=0) 
 = 0.1132    (WHEN MIN. R.F.=1)  AT K=   3, I=   2, J=  28
=======
 = 0.1869    (WHEN MIN. R.F.=1)  AT K=   3, I=   2, J=  31

 MAXIMUM STEPSIZE WHICH MEETS STABILITY CRITERION OF THE ADVECTION TERM
 (FOR PURE FINITE-DIFFERENCE OPTION, MIXELM=0) 
 = 0.1248    (WHEN MIN. R.F.=1)  AT K=   3, I=   2, J=  30
>>>>>>> Stashed changes


 TOTAL NUMBER OF POINT SOURCES/SINKS PRESENT IN THE FLOW MODEL =   240

 MAXIMUM STEPSIZE WHICH MEETS STABILITY CRITERION OF THE SINK & SOURCE TERM
 = 0.1000E+31(WHEN MIN. R.F.=1)  AT K=   0, I=   0, J=   0

 MAXIMUM STEPSIZE WHICH MEETS STABILITY CRITERION OF THE DISPERSION TERM
<<<<<<< Updated upstream
 = 0.6195E-02(WHEN MIN. R.F.=1)  AT K=   3, I=   2, J=  31
     1 CALLS TO GCG PACKAGE FOR TRANSPORT TIME STEP   8 IN FLOW TIME STEP  73 STRESS PERIOD   2
=======
 = 0.6697E-02(WHEN MIN. R.F.=1)  AT K=   3, I=   2, J=  30
     1 CALLS TO GCG PACKAGE FOR TRANSPORT TIME STEP   7 IN FLOW TIME STEP  70 STRESS PERIOD   2
>>>>>>> Stashed changes
    14 TOTAL ITERATIONS
 
 SOLVING FOR HEAD 
 FLOW MODEL IS TRANSIENT
 FLOW MODEL CONTAINS CONSTANT-HEAD CELLS


 MAXIMUM STEPSIZE DURING WHICH ANY PARTICLE CANNOT MOVE MORE THAN ONE CELL
<<<<<<< Updated upstream
 = 0.1632    (WHEN MIN. R.F.=1)  AT K=   3, I=   2, J=  29

 MAXIMUM STEPSIZE WHICH MEETS STABILITY CRITERION OF THE ADVECTION TERM
 (FOR PURE FINITE-DIFFERENCE OPTION, MIXELM=0) 
 = 0.1132    (WHEN MIN. R.F.=1)  AT K=   3, I=   2, J=  28
=======
 = 0.1869    (WHEN MIN. R.F.=1)  AT K=   3, I=   2, J=  31

 MAXIMUM STEPSIZE WHICH MEETS STABILITY CRITERION OF THE ADVECTION TERM
 (FOR PURE FINITE-DIFFERENCE OPTION, MIXELM=0) 
 = 0.1248    (WHEN MIN. R.F.=1)  AT K=   3, I=   2, J=  30
>>>>>>> Stashed changes


 TOTAL NUMBER OF POINT SOURCES/SINKS PRESENT IN THE FLOW MODEL =   240

 MAXIMUM STEPSIZE WHICH MEETS STABILITY CRITERION OF THE SINK & SOURCE TERM
 = 0.1000E+31(WHEN MIN. R.F.=1)  AT K=   0, I=   0, J=   0

 MAXIMUM STEPSIZE WHICH MEETS STABILITY CRITERION OF THE DISPERSION TERM
<<<<<<< Updated upstream
 = 0.6195E-02(WHEN MIN. R.F.=1)  AT K=   3, I=   2, J=  31
     1 CALLS TO GCG PACKAGE FOR TRANSPORT TIME STEP   9 IN FLOW TIME STEP  73 STRESS PERIOD   2
=======
 = 0.6697E-02(WHEN MIN. R.F.=1)  AT K=   3, I=   2, J=  30
     1 CALLS TO GCG PACKAGE FOR TRANSPORT TIME STEP   8 IN FLOW TIME STEP  70 STRESS PERIOD   2
>>>>>>> Stashed changes
     5 TOTAL ITERATIONS
  MAXIMUM CONCENTRATION CHANGES FOR EACH ITERATION:
  MAX. CHANGE LAYER,ROW,COL MAX. CHANGE LAYER,ROW,COL MAX. CHANGE LAYER,ROW,COL MAX. CHANGE LAYER,ROW,COL MAX. CHANGE LAYER,ROW,COL
 ------------------------------------------------------------------------------------------------------------------------------------
<<<<<<< Updated upstream
   0.1406E-03 ( 14,  3, 52)  0.5317E-05 (  5,  2, 64)  0.9944E-06 (  6,  1, 56)  0.1466E-06 (  4,  2, 46)  0.7722E-07 (  3,  3, 28)


                                          ================================================
                                                         FROM TIME =   74.000     TO    75.000    
=======
   0.1292E-03 ( 17,  1, 53)  0.3547E-05 (  5,  2, 62)  0.6477E-06 (  4,  2, 54)  0.2026E-06 (  3,  2, 41)  0.6309E-07 (  4,  2, 37)
 UBDSV1 SAVING "         STORAGE" ON UNIT  53 AT TIME STEP 70, STRESS PERIOD   2
 UBDSV2 SAVING "   CONSTANT HEAD" ON UNIT  53 AT TIME STEP 70, STRESS PERIOD   2
 UBDSV1 SAVING "FLOW RIGHT FACE " ON UNIT  53 AT TIME STEP 70, STRESS PERIOD   2
 UBDSV1 SAVING "FLOW FRONT FACE " ON UNIT  53 AT TIME STEP 70, STRESS PERIOD   2
 UBDSV1 SAVING "FLOW LOWER FACE " ON UNIT  53 AT TIME STEP 70, STRESS PERIOD   2
 UBDSV1 SAVING "            DCDT" ON UNIT  53 AT TIME STEP 70, STRESS PERIOD   2

 HEAD WILL BE SAVED ON UNIT   51 AT END OF TIME STEP  70, STRESS PERIOD    2


                                          ================================================
                                                         FROM TIME =   71.000     TO    72.000    
>>>>>>> Stashed changes

 
 SOLVING FOR HEAD 
 FLOW MODEL IS TRANSIENT
 FLOW MODEL CONTAINS CONSTANT-HEAD CELLS


 MAXIMUM STEPSIZE DURING WHICH ANY PARTICLE CANNOT MOVE MORE THAN ONE CELL
<<<<<<< Updated upstream
 = 0.1632    (WHEN MIN. R.F.=1)  AT K=   3, I=   2, J=  29

 MAXIMUM STEPSIZE WHICH MEETS STABILITY CRITERION OF THE ADVECTION TERM
 (FOR PURE FINITE-DIFFERENCE OPTION, MIXELM=0) 
 = 0.1132    (WHEN MIN. R.F.=1)  AT K=   3, I=   2, J=  28
=======
 = 0.1869    (WHEN MIN. R.F.=1)  AT K=   3, I=   2, J=  31

 MAXIMUM STEPSIZE WHICH MEETS STABILITY CRITERION OF THE ADVECTION TERM
 (FOR PURE FINITE-DIFFERENCE OPTION, MIXELM=0) 
 = 0.1248    (WHEN MIN. R.F.=1)  AT K=   3, I=   2, J=  30
>>>>>>> Stashed changes


 TOTAL NUMBER OF POINT SOURCES/SINKS PRESENT IN THE FLOW MODEL =   240

 MAXIMUM STEPSIZE WHICH MEETS STABILITY CRITERION OF THE SINK & SOURCE TERM
 = 0.1000E+31(WHEN MIN. R.F.=1)  AT K=   0, I=   0, J=   0

 MAXIMUM STEPSIZE WHICH MEETS STABILITY CRITERION OF THE DISPERSION TERM
<<<<<<< Updated upstream
 = 0.6195E-02(WHEN MIN. R.F.=1)  AT K=   3, I=   2, J=  31


     1 CALLS TO GCG PACKAGE FOR TRANSPORT TIME STEP   1 IN FLOW TIME STEP  74 STRESS PERIOD   2
    14 TOTAL ITERATIONS

 NO OUTPUT CONTROL FOR STRESS PERIOD    2   TIME STEP  74
=======
 = 0.6697E-02(WHEN MIN. R.F.=1)  AT K=   3, I=   2, J=  30


     1 CALLS TO GCG PACKAGE FOR TRANSPORT TIME STEP   1 IN FLOW TIME STEP  71 STRESS PERIOD   2
    14 TOTAL ITERATIONS

 OUTPUT CONTROL FOR STRESS PERIOD    2   TIME STEP  71
    SAVE HEAD FOR ALL LAYERS
    SAVE BUDGET
>>>>>>> Stashed changes
 
 SOLVING FOR HEAD 
 FLOW MODEL IS TRANSIENT
 FLOW MODEL CONTAINS CONSTANT-HEAD CELLS


 MAXIMUM STEPSIZE DURING WHICH ANY PARTICLE CANNOT MOVE MORE THAN ONE CELL
<<<<<<< Updated upstream
 = 0.1632    (WHEN MIN. R.F.=1)  AT K=   3, I=   2, J=  29

 MAXIMUM STEPSIZE WHICH MEETS STABILITY CRITERION OF THE ADVECTION TERM
 (FOR PURE FINITE-DIFFERENCE OPTION, MIXELM=0) 
 = 0.1132    (WHEN MIN. R.F.=1)  AT K=   3, I=   2, J=  28
=======
 = 0.1869    (WHEN MIN. R.F.=1)  AT K=   3, I=   2, J=  31

 MAXIMUM STEPSIZE WHICH MEETS STABILITY CRITERION OF THE ADVECTION TERM
 (FOR PURE FINITE-DIFFERENCE OPTION, MIXELM=0) 
 = 0.1248    (WHEN MIN. R.F.=1)  AT K=   3, I=   2, J=  30
>>>>>>> Stashed changes


 TOTAL NUMBER OF POINT SOURCES/SINKS PRESENT IN THE FLOW MODEL =   240

 MAXIMUM STEPSIZE WHICH MEETS STABILITY CRITERION OF THE SINK & SOURCE TERM
 = 0.1000E+31(WHEN MIN. R.F.=1)  AT K=   0, I=   0, J=   0

 MAXIMUM STEPSIZE WHICH MEETS STABILITY CRITERION OF THE DISPERSION TERM
<<<<<<< Updated upstream
 = 0.6195E-02(WHEN MIN. R.F.=1)  AT K=   3, I=   2, J=  31
     1 CALLS TO GCG PACKAGE FOR TRANSPORT TIME STEP   2 IN FLOW TIME STEP  74 STRESS PERIOD   2
=======
 = 0.6697E-02(WHEN MIN. R.F.=1)  AT K=   3, I=   2, J=  30
     1 CALLS TO GCG PACKAGE FOR TRANSPORT TIME STEP   2 IN FLOW TIME STEP  71 STRESS PERIOD   2
>>>>>>> Stashed changes
    14 TOTAL ITERATIONS
 
 SOLVING FOR HEAD 
 FLOW MODEL IS TRANSIENT
 FLOW MODEL CONTAINS CONSTANT-HEAD CELLS


 MAXIMUM STEPSIZE DURING WHICH ANY PARTICLE CANNOT MOVE MORE THAN ONE CELL
<<<<<<< Updated upstream
 = 0.1632    (WHEN MIN. R.F.=1)  AT K=   3, I=   2, J=  29

 MAXIMUM STEPSIZE WHICH MEETS STABILITY CRITERION OF THE ADVECTION TERM
 (FOR PURE FINITE-DIFFERENCE OPTION, MIXELM=0) 
 = 0.1132    (WHEN MIN. R.F.=1)  AT K=   3, I=   2, J=  28
=======
 = 0.1869    (WHEN MIN. R.F.=1)  AT K=   3, I=   2, J=  31

 MAXIMUM STEPSIZE WHICH MEETS STABILITY CRITERION OF THE ADVECTION TERM
 (FOR PURE FINITE-DIFFERENCE OPTION, MIXELM=0) 
 = 0.1248    (WHEN MIN. R.F.=1)  AT K=   3, I=   2, J=  30
>>>>>>> Stashed changes


 TOTAL NUMBER OF POINT SOURCES/SINKS PRESENT IN THE FLOW MODEL =   240

 MAXIMUM STEPSIZE WHICH MEETS STABILITY CRITERION OF THE SINK & SOURCE TERM
 = 0.1000E+31(WHEN MIN. R.F.=1)  AT K=   0, I=   0, J=   0

 MAXIMUM STEPSIZE WHICH MEETS STABILITY CRITERION OF THE DISPERSION TERM
<<<<<<< Updated upstream
 = 0.6195E-02(WHEN MIN. R.F.=1)  AT K=   3, I=   2, J=  31
     1 CALLS TO GCG PACKAGE FOR TRANSPORT TIME STEP   3 IN FLOW TIME STEP  74 STRESS PERIOD   2
=======
 = 0.6697E-02(WHEN MIN. R.F.=1)  AT K=   3, I=   2, J=  30
     1 CALLS TO GCG PACKAGE FOR TRANSPORT TIME STEP   3 IN FLOW TIME STEP  71 STRESS PERIOD   2
>>>>>>> Stashed changes
    14 TOTAL ITERATIONS
 
 SOLVING FOR HEAD 
 FLOW MODEL IS TRANSIENT
 FLOW MODEL CONTAINS CONSTANT-HEAD CELLS


 MAXIMUM STEPSIZE DURING WHICH ANY PARTICLE CANNOT MOVE MORE THAN ONE CELL
<<<<<<< Updated upstream
 = 0.1632    (WHEN MIN. R.F.=1)  AT K=   3, I=   2, J=  29

 MAXIMUM STEPSIZE WHICH MEETS STABILITY CRITERION OF THE ADVECTION TERM
 (FOR PURE FINITE-DIFFERENCE OPTION, MIXELM=0) 
 = 0.1132    (WHEN MIN. R.F.=1)  AT K=   3, I=   2, J=  28
=======
 = 0.1869    (WHEN MIN. R.F.=1)  AT K=   3, I=   2, J=  31

 MAXIMUM STEPSIZE WHICH MEETS STABILITY CRITERION OF THE ADVECTION TERM
 (FOR PURE FINITE-DIFFERENCE OPTION, MIXELM=0) 
 = 0.1248    (WHEN MIN. R.F.=1)  AT K=   3, I=   2, J=  30
>>>>>>> Stashed changes


 TOTAL NUMBER OF POINT SOURCES/SINKS PRESENT IN THE FLOW MODEL =   240

 MAXIMUM STEPSIZE WHICH MEETS STABILITY CRITERION OF THE SINK & SOURCE TERM
 = 0.1000E+31(WHEN MIN. R.F.=1)  AT K=   0, I=   0, J=   0

 MAXIMUM STEPSIZE WHICH MEETS STABILITY CRITERION OF THE DISPERSION TERM
<<<<<<< Updated upstream
 = 0.6195E-02(WHEN MIN. R.F.=1)  AT K=   3, I=   2, J=  31
     1 CALLS TO GCG PACKAGE FOR TRANSPORT TIME STEP   4 IN FLOW TIME STEP  74 STRESS PERIOD   2
=======
 = 0.6697E-02(WHEN MIN. R.F.=1)  AT K=   3, I=   2, J=  30
     1 CALLS TO GCG PACKAGE FOR TRANSPORT TIME STEP   4 IN FLOW TIME STEP  71 STRESS PERIOD   2
>>>>>>> Stashed changes
    14 TOTAL ITERATIONS
 
 SOLVING FOR HEAD 
 FLOW MODEL IS TRANSIENT
 FLOW MODEL CONTAINS CONSTANT-HEAD CELLS


 MAXIMUM STEPSIZE DURING WHICH ANY PARTICLE CANNOT MOVE MORE THAN ONE CELL
<<<<<<< Updated upstream
 = 0.1632    (WHEN MIN. R.F.=1)  AT K=   3, I=   2, J=  29

 MAXIMUM STEPSIZE WHICH MEETS STABILITY CRITERION OF THE ADVECTION TERM
 (FOR PURE FINITE-DIFFERENCE OPTION, MIXELM=0) 
 = 0.1132    (WHEN MIN. R.F.=1)  AT K=   3, I=   2, J=  28
=======
 = 0.1869    (WHEN MIN. R.F.=1)  AT K=   3, I=   2, J=  31

 MAXIMUM STEPSIZE WHICH MEETS STABILITY CRITERION OF THE ADVECTION TERM
 (FOR PURE FINITE-DIFFERENCE OPTION, MIXELM=0) 
 = 0.1248    (WHEN MIN. R.F.=1)  AT K=   3, I=   2, J=  30
>>>>>>> Stashed changes


 TOTAL NUMBER OF POINT SOURCES/SINKS PRESENT IN THE FLOW MODEL =   240

 MAXIMUM STEPSIZE WHICH MEETS STABILITY CRITERION OF THE SINK & SOURCE TERM
 = 0.1000E+31(WHEN MIN. R.F.=1)  AT K=   0, I=   0, J=   0

 MAXIMUM STEPSIZE WHICH MEETS STABILITY CRITERION OF THE DISPERSION TERM
<<<<<<< Updated upstream
 = 0.6195E-02(WHEN MIN. R.F.=1)  AT K=   3, I=   2, J=  31
     1 CALLS TO GCG PACKAGE FOR TRANSPORT TIME STEP   5 IN FLOW TIME STEP  74 STRESS PERIOD   2
=======
 = 0.6697E-02(WHEN MIN. R.F.=1)  AT K=   3, I=   2, J=  30
     1 CALLS TO GCG PACKAGE FOR TRANSPORT TIME STEP   5 IN FLOW TIME STEP  71 STRESS PERIOD   2
>>>>>>> Stashed changes
    14 TOTAL ITERATIONS
 
 SOLVING FOR HEAD 
 FLOW MODEL IS TRANSIENT
 FLOW MODEL CONTAINS CONSTANT-HEAD CELLS


 MAXIMUM STEPSIZE DURING WHICH ANY PARTICLE CANNOT MOVE MORE THAN ONE CELL
<<<<<<< Updated upstream
 = 0.1632    (WHEN MIN. R.F.=1)  AT K=   3, I=   2, J=  29

 MAXIMUM STEPSIZE WHICH MEETS STABILITY CRITERION OF THE ADVECTION TERM
 (FOR PURE FINITE-DIFFERENCE OPTION, MIXELM=0) 
 = 0.1132    (WHEN MIN. R.F.=1)  AT K=   3, I=   2, J=  28
=======
 = 0.1869    (WHEN MIN. R.F.=1)  AT K=   3, I=   2, J=  31

 MAXIMUM STEPSIZE WHICH MEETS STABILITY CRITERION OF THE ADVECTION TERM
 (FOR PURE FINITE-DIFFERENCE OPTION, MIXELM=0) 
 = 0.1248    (WHEN MIN. R.F.=1)  AT K=   3, I=   2, J=  30
>>>>>>> Stashed changes


 TOTAL NUMBER OF POINT SOURCES/SINKS PRESENT IN THE FLOW MODEL =   240

 MAXIMUM STEPSIZE WHICH MEETS STABILITY CRITERION OF THE SINK & SOURCE TERM
 = 0.1000E+31(WHEN MIN. R.F.=1)  AT K=   0, I=   0, J=   0

 MAXIMUM STEPSIZE WHICH MEETS STABILITY CRITERION OF THE DISPERSION TERM
<<<<<<< Updated upstream
 = 0.6195E-02(WHEN MIN. R.F.=1)  AT K=   3, I=   2, J=  31
     1 CALLS TO GCG PACKAGE FOR TRANSPORT TIME STEP   6 IN FLOW TIME STEP  74 STRESS PERIOD   2
    14 TOTAL ITERATIONS
=======
 = 0.6697E-02(WHEN MIN. R.F.=1)  AT K=   3, I=   2, J=  30
     1 CALLS TO GCG PACKAGE FOR TRANSPORT TIME STEP   6 IN FLOW TIME STEP  71 STRESS PERIOD   2
    15 TOTAL ITERATIONS
>>>>>>> Stashed changes
 
 SOLVING FOR HEAD 
 FLOW MODEL IS TRANSIENT
 FLOW MODEL CONTAINS CONSTANT-HEAD CELLS


 MAXIMUM STEPSIZE DURING WHICH ANY PARTICLE CANNOT MOVE MORE THAN ONE CELL
<<<<<<< Updated upstream
 = 0.1632    (WHEN MIN. R.F.=1)  AT K=   3, I=   2, J=  29

 MAXIMUM STEPSIZE WHICH MEETS STABILITY CRITERION OF THE ADVECTION TERM
 (FOR PURE FINITE-DIFFERENCE OPTION, MIXELM=0) 
 = 0.1132    (WHEN MIN. R.F.=1)  AT K=   3, I=   2, J=  28
=======
 = 0.1869    (WHEN MIN. R.F.=1)  AT K=   3, I=   2, J=  31

 MAXIMUM STEPSIZE WHICH MEETS STABILITY CRITERION OF THE ADVECTION TERM
 (FOR PURE FINITE-DIFFERENCE OPTION, MIXELM=0) 
 = 0.1248    (WHEN MIN. R.F.=1)  AT K=   3, I=   2, J=  30
>>>>>>> Stashed changes


 TOTAL NUMBER OF POINT SOURCES/SINKS PRESENT IN THE FLOW MODEL =   240

 MAXIMUM STEPSIZE WHICH MEETS STABILITY CRITERION OF THE SINK & SOURCE TERM
 = 0.1000E+31(WHEN MIN. R.F.=1)  AT K=   0, I=   0, J=   0

 MAXIMUM STEPSIZE WHICH MEETS STABILITY CRITERION OF THE DISPERSION TERM
<<<<<<< Updated upstream
 = 0.6195E-02(WHEN MIN. R.F.=1)  AT K=   3, I=   2, J=  31
     1 CALLS TO GCG PACKAGE FOR TRANSPORT TIME STEP   7 IN FLOW TIME STEP  74 STRESS PERIOD   2
=======
 = 0.6697E-02(WHEN MIN. R.F.=1)  AT K=   3, I=   2, J=  30
     1 CALLS TO GCG PACKAGE FOR TRANSPORT TIME STEP   7 IN FLOW TIME STEP  71 STRESS PERIOD   2
>>>>>>> Stashed changes
    14 TOTAL ITERATIONS
 
 SOLVING FOR HEAD 
 FLOW MODEL IS TRANSIENT
 FLOW MODEL CONTAINS CONSTANT-HEAD CELLS


 MAXIMUM STEPSIZE DURING WHICH ANY PARTICLE CANNOT MOVE MORE THAN ONE CELL
<<<<<<< Updated upstream
 = 0.1632    (WHEN MIN. R.F.=1)  AT K=   3, I=   2, J=  29

 MAXIMUM STEPSIZE WHICH MEETS STABILITY CRITERION OF THE ADVECTION TERM
 (FOR PURE FINITE-DIFFERENCE OPTION, MIXELM=0) 
 = 0.1132    (WHEN MIN. R.F.=1)  AT K=   3, I=   2, J=  28
=======
 = 0.1869    (WHEN MIN. R.F.=1)  AT K=   3, I=   2, J=  31

 MAXIMUM STEPSIZE WHICH MEETS STABILITY CRITERION OF THE ADVECTION TERM
 (FOR PURE FINITE-DIFFERENCE OPTION, MIXELM=0) 
 = 0.1248    (WHEN MIN. R.F.=1)  AT K=   3, I=   2, J=  30
>>>>>>> Stashed changes


 TOTAL NUMBER OF POINT SOURCES/SINKS PRESENT IN THE FLOW MODEL =   240

 MAXIMUM STEPSIZE WHICH MEETS STABILITY CRITERION OF THE SINK & SOURCE TERM
 = 0.1000E+31(WHEN MIN. R.F.=1)  AT K=   0, I=   0, J=   0

 MAXIMUM STEPSIZE WHICH MEETS STABILITY CRITERION OF THE DISPERSION TERM
<<<<<<< Updated upstream
 = 0.6195E-02(WHEN MIN. R.F.=1)  AT K=   3, I=   2, J=  31
     1 CALLS TO GCG PACKAGE FOR TRANSPORT TIME STEP   8 IN FLOW TIME STEP  74 STRESS PERIOD   2
    14 TOTAL ITERATIONS
=======
 = 0.6697E-02(WHEN MIN. R.F.=1)  AT K=   3, I=   2, J=  30
     1 CALLS TO GCG PACKAGE FOR TRANSPORT TIME STEP   8 IN FLOW TIME STEP  71 STRESS PERIOD   2
     5 TOTAL ITERATIONS
  MAXIMUM CONCENTRATION CHANGES FOR EACH ITERATION:
  MAX. CHANGE LAYER,ROW,COL MAX. CHANGE LAYER,ROW,COL MAX. CHANGE LAYER,ROW,COL MAX. CHANGE LAYER,ROW,COL MAX. CHANGE LAYER,ROW,COL
 ------------------------------------------------------------------------------------------------------------------------------------
   0.1283E-03 ( 17,  1, 53)  0.3449E-05 (  5,  2, 62)  0.6269E-06 (  4,  2, 54)  0.1942E-06 (  3,  2, 43)  0.6870E-07 (  4,  1, 31)
 UBDSV1 SAVING "         STORAGE" ON UNIT  53 AT TIME STEP 71, STRESS PERIOD   2
 UBDSV2 SAVING "   CONSTANT HEAD" ON UNIT  53 AT TIME STEP 71, STRESS PERIOD   2
 UBDSV1 SAVING "FLOW RIGHT FACE " ON UNIT  53 AT TIME STEP 71, STRESS PERIOD   2
 UBDSV1 SAVING "FLOW FRONT FACE " ON UNIT  53 AT TIME STEP 71, STRESS PERIOD   2
 UBDSV1 SAVING "FLOW LOWER FACE " ON UNIT  53 AT TIME STEP 71, STRESS PERIOD   2
 UBDSV1 SAVING "            DCDT" ON UNIT  53 AT TIME STEP 71, STRESS PERIOD   2

 HEAD WILL BE SAVED ON UNIT   51 AT END OF TIME STEP  71, STRESS PERIOD    2


                                          ================================================
                                                         FROM TIME =   72.000     TO    73.000    

>>>>>>> Stashed changes
 
 SOLVING FOR HEAD 
 FLOW MODEL IS TRANSIENT
 FLOW MODEL CONTAINS CONSTANT-HEAD CELLS


 MAXIMUM STEPSIZE DURING WHICH ANY PARTICLE CANNOT MOVE MORE THAN ONE CELL
<<<<<<< Updated upstream
 = 0.1632    (WHEN MIN. R.F.=1)  AT K=   3, I=   2, J=  29

 MAXIMUM STEPSIZE WHICH MEETS STABILITY CRITERION OF THE ADVECTION TERM
 (FOR PURE FINITE-DIFFERENCE OPTION, MIXELM=0) 
 = 0.1132    (WHEN MIN. R.F.=1)  AT K=   3, I=   2, J=  28
=======
 = 0.1869    (WHEN MIN. R.F.=1)  AT K=   3, I=   2, J=  31

 MAXIMUM STEPSIZE WHICH MEETS STABILITY CRITERION OF THE ADVECTION TERM
 (FOR PURE FINITE-DIFFERENCE OPTION, MIXELM=0) 
 = 0.1248    (WHEN MIN. R.F.=1)  AT K=   3, I=   2, J=  30
>>>>>>> Stashed changes


 TOTAL NUMBER OF POINT SOURCES/SINKS PRESENT IN THE FLOW MODEL =   240

 MAXIMUM STEPSIZE WHICH MEETS STABILITY CRITERION OF THE SINK & SOURCE TERM
 = 0.1000E+31(WHEN MIN. R.F.=1)  AT K=   0, I=   0, J=   0

 MAXIMUM STEPSIZE WHICH MEETS STABILITY CRITERION OF THE DISPERSION TERM
<<<<<<< Updated upstream
 = 0.6195E-02(WHEN MIN. R.F.=1)  AT K=   3, I=   2, J=  31
     1 CALLS TO GCG PACKAGE FOR TRANSPORT TIME STEP   9 IN FLOW TIME STEP  74 STRESS PERIOD   2
     5 TOTAL ITERATIONS
  MAXIMUM CONCENTRATION CHANGES FOR EACH ITERATION:
  MAX. CHANGE LAYER,ROW,COL MAX. CHANGE LAYER,ROW,COL MAX. CHANGE LAYER,ROW,COL MAX. CHANGE LAYER,ROW,COL MAX. CHANGE LAYER,ROW,COL
 ------------------------------------------------------------------------------------------------------------------------------------
   0.1393E-03 ( 14,  3, 52)  0.5181E-05 (  5,  2, 64)  0.9646E-06 (  6,  1, 56)  0.1394E-06 (  4,  2, 46)  0.6872E-07 (  3,  3, 30)


                                          ================================================
                                                         FROM TIME =   75.000     TO    76.000    

=======
 = 0.6697E-02(WHEN MIN. R.F.=1)  AT K=   3, I=   2, J=  30


     1 CALLS TO GCG PACKAGE FOR TRANSPORT TIME STEP   1 IN FLOW TIME STEP  72 STRESS PERIOD   2
    14 TOTAL ITERATIONS

 OUTPUT CONTROL FOR STRESS PERIOD    2   TIME STEP  72
    SAVE HEAD FOR ALL LAYERS
    SAVE BUDGET
>>>>>>> Stashed changes
 
 SOLVING FOR HEAD 
 FLOW MODEL IS TRANSIENT
 FLOW MODEL CONTAINS CONSTANT-HEAD CELLS


 MAXIMUM STEPSIZE DURING WHICH ANY PARTICLE CANNOT MOVE MORE THAN ONE CELL
<<<<<<< Updated upstream
 = 0.1632    (WHEN MIN. R.F.=1)  AT K=   3, I=   2, J=  29

 MAXIMUM STEPSIZE WHICH MEETS STABILITY CRITERION OF THE ADVECTION TERM
 (FOR PURE FINITE-DIFFERENCE OPTION, MIXELM=0) 
 = 0.1132    (WHEN MIN. R.F.=1)  AT K=   3, I=   2, J=  28
=======
 = 0.1869    (WHEN MIN. R.F.=1)  AT K=   3, I=   2, J=  31

 MAXIMUM STEPSIZE WHICH MEETS STABILITY CRITERION OF THE ADVECTION TERM
 (FOR PURE FINITE-DIFFERENCE OPTION, MIXELM=0) 
 = 0.1248    (WHEN MIN. R.F.=1)  AT K=   3, I=   2, J=  30
>>>>>>> Stashed changes


 TOTAL NUMBER OF POINT SOURCES/SINKS PRESENT IN THE FLOW MODEL =   240

 MAXIMUM STEPSIZE WHICH MEETS STABILITY CRITERION OF THE SINK & SOURCE TERM
 = 0.1000E+31(WHEN MIN. R.F.=1)  AT K=   0, I=   0, J=   0

 MAXIMUM STEPSIZE WHICH MEETS STABILITY CRITERION OF THE DISPERSION TERM
<<<<<<< Updated upstream
 = 0.6195E-02(WHEN MIN. R.F.=1)  AT K=   3, I=   2, J=  31


     1 CALLS TO GCG PACKAGE FOR TRANSPORT TIME STEP   1 IN FLOW TIME STEP  75 STRESS PERIOD   2
    15 TOTAL ITERATIONS

 NO OUTPUT CONTROL FOR STRESS PERIOD    2   TIME STEP  75
=======
 = 0.6697E-02(WHEN MIN. R.F.=1)  AT K=   3, I=   2, J=  30
     1 CALLS TO GCG PACKAGE FOR TRANSPORT TIME STEP   2 IN FLOW TIME STEP  72 STRESS PERIOD   2
    14 TOTAL ITERATIONS
>>>>>>> Stashed changes
 
 SOLVING FOR HEAD 
 FLOW MODEL IS TRANSIENT
 FLOW MODEL CONTAINS CONSTANT-HEAD CELLS


 MAXIMUM STEPSIZE DURING WHICH ANY PARTICLE CANNOT MOVE MORE THAN ONE CELL
<<<<<<< Updated upstream
 = 0.1632    (WHEN MIN. R.F.=1)  AT K=   3, I=   2, J=  29

 MAXIMUM STEPSIZE WHICH MEETS STABILITY CRITERION OF THE ADVECTION TERM
 (FOR PURE FINITE-DIFFERENCE OPTION, MIXELM=0) 
 = 0.1132    (WHEN MIN. R.F.=1)  AT K=   3, I=   2, J=  28
=======
 = 0.1869    (WHEN MIN. R.F.=1)  AT K=   3, I=   2, J=  31

 MAXIMUM STEPSIZE WHICH MEETS STABILITY CRITERION OF THE ADVECTION TERM
 (FOR PURE FINITE-DIFFERENCE OPTION, MIXELM=0) 
 = 0.1248    (WHEN MIN. R.F.=1)  AT K=   3, I=   2, J=  30
>>>>>>> Stashed changes


 TOTAL NUMBER OF POINT SOURCES/SINKS PRESENT IN THE FLOW MODEL =   240

 MAXIMUM STEPSIZE WHICH MEETS STABILITY CRITERION OF THE SINK & SOURCE TERM
 = 0.1000E+31(WHEN MIN. R.F.=1)  AT K=   0, I=   0, J=   0

 MAXIMUM STEPSIZE WHICH MEETS STABILITY CRITERION OF THE DISPERSION TERM
<<<<<<< Updated upstream
 = 0.6195E-02(WHEN MIN. R.F.=1)  AT K=   3, I=   2, J=  31
     1 CALLS TO GCG PACKAGE FOR TRANSPORT TIME STEP   2 IN FLOW TIME STEP  75 STRESS PERIOD   2
=======
 = 0.6697E-02(WHEN MIN. R.F.=1)  AT K=   3, I=   2, J=  30
     1 CALLS TO GCG PACKAGE FOR TRANSPORT TIME STEP   3 IN FLOW TIME STEP  72 STRESS PERIOD   2
>>>>>>> Stashed changes
    14 TOTAL ITERATIONS
 
 SOLVING FOR HEAD 
 FLOW MODEL IS TRANSIENT
 FLOW MODEL CONTAINS CONSTANT-HEAD CELLS


 MAXIMUM STEPSIZE DURING WHICH ANY PARTICLE CANNOT MOVE MORE THAN ONE CELL
<<<<<<< Updated upstream
 = 0.1632    (WHEN MIN. R.F.=1)  AT K=   3, I=   2, J=  29

 MAXIMUM STEPSIZE WHICH MEETS STABILITY CRITERION OF THE ADVECTION TERM
 (FOR PURE FINITE-DIFFERENCE OPTION, MIXELM=0) 
 = 0.1132    (WHEN MIN. R.F.=1)  AT K=   3, I=   2, J=  28
=======
 = 0.1869    (WHEN MIN. R.F.=1)  AT K=   3, I=   2, J=  31

 MAXIMUM STEPSIZE WHICH MEETS STABILITY CRITERION OF THE ADVECTION TERM
 (FOR PURE FINITE-DIFFERENCE OPTION, MIXELM=0) 
 = 0.1248    (WHEN MIN. R.F.=1)  AT K=   3, I=   2, J=  30
>>>>>>> Stashed changes


 TOTAL NUMBER OF POINT SOURCES/SINKS PRESENT IN THE FLOW MODEL =   240

 MAXIMUM STEPSIZE WHICH MEETS STABILITY CRITERION OF THE SINK & SOURCE TERM
 = 0.1000E+31(WHEN MIN. R.F.=1)  AT K=   0, I=   0, J=   0

 MAXIMUM STEPSIZE WHICH MEETS STABILITY CRITERION OF THE DISPERSION TERM
<<<<<<< Updated upstream
 = 0.6195E-02(WHEN MIN. R.F.=1)  AT K=   3, I=   2, J=  31
     1 CALLS TO GCG PACKAGE FOR TRANSPORT TIME STEP   3 IN FLOW TIME STEP  75 STRESS PERIOD   2
=======
 = 0.6697E-02(WHEN MIN. R.F.=1)  AT K=   3, I=   2, J=  30
     1 CALLS TO GCG PACKAGE FOR TRANSPORT TIME STEP   4 IN FLOW TIME STEP  72 STRESS PERIOD   2
>>>>>>> Stashed changes
    14 TOTAL ITERATIONS
 
 SOLVING FOR HEAD 
 FLOW MODEL IS TRANSIENT
 FLOW MODEL CONTAINS CONSTANT-HEAD CELLS


 MAXIMUM STEPSIZE DURING WHICH ANY PARTICLE CANNOT MOVE MORE THAN ONE CELL
<<<<<<< Updated upstream
 = 0.1632    (WHEN MIN. R.F.=1)  AT K=   3, I=   2, J=  29

 MAXIMUM STEPSIZE WHICH MEETS STABILITY CRITERION OF THE ADVECTION TERM
 (FOR PURE FINITE-DIFFERENCE OPTION, MIXELM=0) 
 = 0.1132    (WHEN MIN. R.F.=1)  AT K=   3, I=   2, J=  28
=======
 = 0.1869    (WHEN MIN. R.F.=1)  AT K=   3, I=   2, J=  31

 MAXIMUM STEPSIZE WHICH MEETS STABILITY CRITERION OF THE ADVECTION TERM
 (FOR PURE FINITE-DIFFERENCE OPTION, MIXELM=0) 
 = 0.1248    (WHEN MIN. R.F.=1)  AT K=   3, I=   2, J=  30
>>>>>>> Stashed changes


 TOTAL NUMBER OF POINT SOURCES/SINKS PRESENT IN THE FLOW MODEL =   240

 MAXIMUM STEPSIZE WHICH MEETS STABILITY CRITERION OF THE SINK & SOURCE TERM
 = 0.1000E+31(WHEN MIN. R.F.=1)  AT K=   0, I=   0, J=   0

 MAXIMUM STEPSIZE WHICH MEETS STABILITY CRITERION OF THE DISPERSION TERM
<<<<<<< Updated upstream
 = 0.6195E-02(WHEN MIN. R.F.=1)  AT K=   3, I=   2, J=  31
     1 CALLS TO GCG PACKAGE FOR TRANSPORT TIME STEP   4 IN FLOW TIME STEP  75 STRESS PERIOD   2
    13 TOTAL ITERATIONS
=======
 = 0.6697E-02(WHEN MIN. R.F.=1)  AT K=   3, I=   2, J=  30
     1 CALLS TO GCG PACKAGE FOR TRANSPORT TIME STEP   5 IN FLOW TIME STEP  72 STRESS PERIOD   2
    14 TOTAL ITERATIONS
>>>>>>> Stashed changes
 
 SOLVING FOR HEAD 
 FLOW MODEL IS TRANSIENT
 FLOW MODEL CONTAINS CONSTANT-HEAD CELLS


 MAXIMUM STEPSIZE DURING WHICH ANY PARTICLE CANNOT MOVE MORE THAN ONE CELL
<<<<<<< Updated upstream
 = 0.1632    (WHEN MIN. R.F.=1)  AT K=   3, I=   2, J=  29

 MAXIMUM STEPSIZE WHICH MEETS STABILITY CRITERION OF THE ADVECTION TERM
 (FOR PURE FINITE-DIFFERENCE OPTION, MIXELM=0) 
 = 0.1132    (WHEN MIN. R.F.=1)  AT K=   3, I=   2, J=  28
=======
 = 0.1869    (WHEN MIN. R.F.=1)  AT K=   3, I=   2, J=  31

 MAXIMUM STEPSIZE WHICH MEETS STABILITY CRITERION OF THE ADVECTION TERM
 (FOR PURE FINITE-DIFFERENCE OPTION, MIXELM=0) 
 = 0.1248    (WHEN MIN. R.F.=1)  AT K=   3, I=   2, J=  30
>>>>>>> Stashed changes


 TOTAL NUMBER OF POINT SOURCES/SINKS PRESENT IN THE FLOW MODEL =   240

 MAXIMUM STEPSIZE WHICH MEETS STABILITY CRITERION OF THE SINK & SOURCE TERM
 = 0.1000E+31(WHEN MIN. R.F.=1)  AT K=   0, I=   0, J=   0

 MAXIMUM STEPSIZE WHICH MEETS STABILITY CRITERION OF THE DISPERSION TERM
<<<<<<< Updated upstream
 = 0.6195E-02(WHEN MIN. R.F.=1)  AT K=   3, I=   2, J=  31
     1 CALLS TO GCG PACKAGE FOR TRANSPORT TIME STEP   5 IN FLOW TIME STEP  75 STRESS PERIOD   2
=======
 = 0.6697E-02(WHEN MIN. R.F.=1)  AT K=   3, I=   2, J=  30
     1 CALLS TO GCG PACKAGE FOR TRANSPORT TIME STEP   6 IN FLOW TIME STEP  72 STRESS PERIOD   2
>>>>>>> Stashed changes
    14 TOTAL ITERATIONS
 
 SOLVING FOR HEAD 
 FLOW MODEL IS TRANSIENT
 FLOW MODEL CONTAINS CONSTANT-HEAD CELLS


 MAXIMUM STEPSIZE DURING WHICH ANY PARTICLE CANNOT MOVE MORE THAN ONE CELL
<<<<<<< Updated upstream
 = 0.1632    (WHEN MIN. R.F.=1)  AT K=   3, I=   2, J=  29

 MAXIMUM STEPSIZE WHICH MEETS STABILITY CRITERION OF THE ADVECTION TERM
 (FOR PURE FINITE-DIFFERENCE OPTION, MIXELM=0) 
 = 0.1132    (WHEN MIN. R.F.=1)  AT K=   3, I=   2, J=  28
=======
 = 0.1869    (WHEN MIN. R.F.=1)  AT K=   3, I=   2, J=  31

 MAXIMUM STEPSIZE WHICH MEETS STABILITY CRITERION OF THE ADVECTION TERM
 (FOR PURE FINITE-DIFFERENCE OPTION, MIXELM=0) 
 = 0.1248    (WHEN MIN. R.F.=1)  AT K=   3, I=   2, J=  30
>>>>>>> Stashed changes


 TOTAL NUMBER OF POINT SOURCES/SINKS PRESENT IN THE FLOW MODEL =   240

 MAXIMUM STEPSIZE WHICH MEETS STABILITY CRITERION OF THE SINK & SOURCE TERM
 = 0.1000E+31(WHEN MIN. R.F.=1)  AT K=   0, I=   0, J=   0

 MAXIMUM STEPSIZE WHICH MEETS STABILITY CRITERION OF THE DISPERSION TERM
<<<<<<< Updated upstream
 = 0.6195E-02(WHEN MIN. R.F.=1)  AT K=   3, I=   2, J=  31
     1 CALLS TO GCG PACKAGE FOR TRANSPORT TIME STEP   6 IN FLOW TIME STEP  75 STRESS PERIOD   2
=======
 = 0.6697E-02(WHEN MIN. R.F.=1)  AT K=   3, I=   2, J=  30
     1 CALLS TO GCG PACKAGE FOR TRANSPORT TIME STEP   7 IN FLOW TIME STEP  72 STRESS PERIOD   2
>>>>>>> Stashed changes
    14 TOTAL ITERATIONS
 
 SOLVING FOR HEAD 
 FLOW MODEL IS TRANSIENT
 FLOW MODEL CONTAINS CONSTANT-HEAD CELLS


 MAXIMUM STEPSIZE DURING WHICH ANY PARTICLE CANNOT MOVE MORE THAN ONE CELL
<<<<<<< Updated upstream
 = 0.1632    (WHEN MIN. R.F.=1)  AT K=   3, I=   2, J=  29

 MAXIMUM STEPSIZE WHICH MEETS STABILITY CRITERION OF THE ADVECTION TERM
 (FOR PURE FINITE-DIFFERENCE OPTION, MIXELM=0) 
 = 0.1132    (WHEN MIN. R.F.=1)  AT K=   3, I=   2, J=  28
=======
 = 0.1869    (WHEN MIN. R.F.=1)  AT K=   3, I=   2, J=  31

 MAXIMUM STEPSIZE WHICH MEETS STABILITY CRITERION OF THE ADVECTION TERM
 (FOR PURE FINITE-DIFFERENCE OPTION, MIXELM=0) 
 = 0.1248    (WHEN MIN. R.F.=1)  AT K=   3, I=   2, J=  30
>>>>>>> Stashed changes


 TOTAL NUMBER OF POINT SOURCES/SINKS PRESENT IN THE FLOW MODEL =   240

 MAXIMUM STEPSIZE WHICH MEETS STABILITY CRITERION OF THE SINK & SOURCE TERM
 = 0.1000E+31(WHEN MIN. R.F.=1)  AT K=   0, I=   0, J=   0

 MAXIMUM STEPSIZE WHICH MEETS STABILITY CRITERION OF THE DISPERSION TERM
<<<<<<< Updated upstream
 = 0.6195E-02(WHEN MIN. R.F.=1)  AT K=   3, I=   2, J=  31
     1 CALLS TO GCG PACKAGE FOR TRANSPORT TIME STEP   7 IN FLOW TIME STEP  75 STRESS PERIOD   2
    13 TOTAL ITERATIONS
=======
 = 0.6697E-02(WHEN MIN. R.F.=1)  AT K=   3, I=   2, J=  30
     1 CALLS TO GCG PACKAGE FOR TRANSPORT TIME STEP   8 IN FLOW TIME STEP  72 STRESS PERIOD   2
     5 TOTAL ITERATIONS
  MAXIMUM CONCENTRATION CHANGES FOR EACH ITERATION:
  MAX. CHANGE LAYER,ROW,COL MAX. CHANGE LAYER,ROW,COL MAX. CHANGE LAYER,ROW,COL MAX. CHANGE LAYER,ROW,COL MAX. CHANGE LAYER,ROW,COL
 ------------------------------------------------------------------------------------------------------------------------------------
   0.1262E-03 ( 17,  1, 53)  0.3354E-05 (  5,  2, 62)  0.6074E-06 (  4,  2, 54)  0.1957E-06 (  3,  2, 38)  0.6842E-07 (  4,  2, 38)
 UBDSV1 SAVING "         STORAGE" ON UNIT  53 AT TIME STEP 72, STRESS PERIOD   2
 UBDSV2 SAVING "   CONSTANT HEAD" ON UNIT  53 AT TIME STEP 72, STRESS PERIOD   2
 UBDSV1 SAVING "FLOW RIGHT FACE " ON UNIT  53 AT TIME STEP 72, STRESS PERIOD   2
 UBDSV1 SAVING "FLOW FRONT FACE " ON UNIT  53 AT TIME STEP 72, STRESS PERIOD   2
 UBDSV1 SAVING "FLOW LOWER FACE " ON UNIT  53 AT TIME STEP 72, STRESS PERIOD   2
 UBDSV1 SAVING "            DCDT" ON UNIT  53 AT TIME STEP 72, STRESS PERIOD   2

 HEAD WILL BE SAVED ON UNIT   51 AT END OF TIME STEP  72, STRESS PERIOD    2


                                          ================================================
                                                         FROM TIME =   73.000     TO    74.000    

>>>>>>> Stashed changes
 
 SOLVING FOR HEAD 
 FLOW MODEL IS TRANSIENT
 FLOW MODEL CONTAINS CONSTANT-HEAD CELLS


 MAXIMUM STEPSIZE DURING WHICH ANY PARTICLE CANNOT MOVE MORE THAN ONE CELL
<<<<<<< Updated upstream
 = 0.1632    (WHEN MIN. R.F.=1)  AT K=   3, I=   2, J=  29

 MAXIMUM STEPSIZE WHICH MEETS STABILITY CRITERION OF THE ADVECTION TERM
 (FOR PURE FINITE-DIFFERENCE OPTION, MIXELM=0) 
 = 0.1132    (WHEN MIN. R.F.=1)  AT K=   3, I=   2, J=  28
=======
 = 0.1869    (WHEN MIN. R.F.=1)  AT K=   3, I=   2, J=  31

 MAXIMUM STEPSIZE WHICH MEETS STABILITY CRITERION OF THE ADVECTION TERM
 (FOR PURE FINITE-DIFFERENCE OPTION, MIXELM=0) 
 = 0.1248    (WHEN MIN. R.F.=1)  AT K=   3, I=   2, J=  30
>>>>>>> Stashed changes


 TOTAL NUMBER OF POINT SOURCES/SINKS PRESENT IN THE FLOW MODEL =   240

 MAXIMUM STEPSIZE WHICH MEETS STABILITY CRITERION OF THE SINK & SOURCE TERM
 = 0.1000E+31(WHEN MIN. R.F.=1)  AT K=   0, I=   0, J=   0

 MAXIMUM STEPSIZE WHICH MEETS STABILITY CRITERION OF THE DISPERSION TERM
<<<<<<< Updated upstream
 = 0.6195E-02(WHEN MIN. R.F.=1)  AT K=   3, I=   2, J=  31
     1 CALLS TO GCG PACKAGE FOR TRANSPORT TIME STEP   8 IN FLOW TIME STEP  75 STRESS PERIOD   2
    14 TOTAL ITERATIONS
=======
 = 0.6697E-02(WHEN MIN. R.F.=1)  AT K=   3, I=   2, J=  30


     1 CALLS TO GCG PACKAGE FOR TRANSPORT TIME STEP   1 IN FLOW TIME STEP  73 STRESS PERIOD   2
    14 TOTAL ITERATIONS

 OUTPUT CONTROL FOR STRESS PERIOD    2   TIME STEP  73
    SAVE HEAD FOR ALL LAYERS
    SAVE BUDGET
>>>>>>> Stashed changes
 
 SOLVING FOR HEAD 
 FLOW MODEL IS TRANSIENT
 FLOW MODEL CONTAINS CONSTANT-HEAD CELLS


 MAXIMUM STEPSIZE DURING WHICH ANY PARTICLE CANNOT MOVE MORE THAN ONE CELL
<<<<<<< Updated upstream
 = 0.1632    (WHEN MIN. R.F.=1)  AT K=   3, I=   2, J=  29

 MAXIMUM STEPSIZE WHICH MEETS STABILITY CRITERION OF THE ADVECTION TERM
 (FOR PURE FINITE-DIFFERENCE OPTION, MIXELM=0) 
 = 0.1132    (WHEN MIN. R.F.=1)  AT K=   3, I=   2, J=  28
=======
 = 0.1869    (WHEN MIN. R.F.=1)  AT K=   3, I=   2, J=  31

 MAXIMUM STEPSIZE WHICH MEETS STABILITY CRITERION OF THE ADVECTION TERM
 (FOR PURE FINITE-DIFFERENCE OPTION, MIXELM=0) 
 = 0.1248    (WHEN MIN. R.F.=1)  AT K=   3, I=   2, J=  30
>>>>>>> Stashed changes


 TOTAL NUMBER OF POINT SOURCES/SINKS PRESENT IN THE FLOW MODEL =   240

 MAXIMUM STEPSIZE WHICH MEETS STABILITY CRITERION OF THE SINK & SOURCE TERM
 = 0.1000E+31(WHEN MIN. R.F.=1)  AT K=   0, I=   0, J=   0

 MAXIMUM STEPSIZE WHICH MEETS STABILITY CRITERION OF THE DISPERSION TERM
<<<<<<< Updated upstream
 = 0.6195E-02(WHEN MIN. R.F.=1)  AT K=   3, I=   2, J=  31
     1 CALLS TO GCG PACKAGE FOR TRANSPORT TIME STEP   9 IN FLOW TIME STEP  75 STRESS PERIOD   2
     5 TOTAL ITERATIONS
  MAXIMUM CONCENTRATION CHANGES FOR EACH ITERATION:
  MAX. CHANGE LAYER,ROW,COL MAX. CHANGE LAYER,ROW,COL MAX. CHANGE LAYER,ROW,COL MAX. CHANGE LAYER,ROW,COL MAX. CHANGE LAYER,ROW,COL
 ------------------------------------------------------------------------------------------------------------------------------------
   0.1380E-03 ( 14,  3, 52)  0.5050E-05 (  5,  2, 64)  0.9360E-06 (  6,  1, 56)  0.1327E-06 (  4,  2, 46)  0.6630E-07 (  3,  3, 30)


                                          ================================================
                                                         FROM TIME =   76.000     TO    77.000    

=======
 = 0.6697E-02(WHEN MIN. R.F.=1)  AT K=   3, I=   2, J=  30
     1 CALLS TO GCG PACKAGE FOR TRANSPORT TIME STEP   2 IN FLOW TIME STEP  73 STRESS PERIOD   2
    14 TOTAL ITERATIONS
>>>>>>> Stashed changes
 
 SOLVING FOR HEAD 
 FLOW MODEL IS TRANSIENT
 FLOW MODEL CONTAINS CONSTANT-HEAD CELLS


 MAXIMUM STEPSIZE DURING WHICH ANY PARTICLE CANNOT MOVE MORE THAN ONE CELL
<<<<<<< Updated upstream
 = 0.1632    (WHEN MIN. R.F.=1)  AT K=   3, I=   2, J=  29

 MAXIMUM STEPSIZE WHICH MEETS STABILITY CRITERION OF THE ADVECTION TERM
 (FOR PURE FINITE-DIFFERENCE OPTION, MIXELM=0) 
 = 0.1132    (WHEN MIN. R.F.=1)  AT K=   3, I=   2, J=  28
=======
 = 0.1869    (WHEN MIN. R.F.=1)  AT K=   3, I=   2, J=  31

 MAXIMUM STEPSIZE WHICH MEETS STABILITY CRITERION OF THE ADVECTION TERM
 (FOR PURE FINITE-DIFFERENCE OPTION, MIXELM=0) 
 = 0.1248    (WHEN MIN. R.F.=1)  AT K=   3, I=   2, J=  30
>>>>>>> Stashed changes


 TOTAL NUMBER OF POINT SOURCES/SINKS PRESENT IN THE FLOW MODEL =   240

 MAXIMUM STEPSIZE WHICH MEETS STABILITY CRITERION OF THE SINK & SOURCE TERM
 = 0.1000E+31(WHEN MIN. R.F.=1)  AT K=   0, I=   0, J=   0

 MAXIMUM STEPSIZE WHICH MEETS STABILITY CRITERION OF THE DISPERSION TERM
<<<<<<< Updated upstream
 = 0.6195E-02(WHEN MIN. R.F.=1)  AT K=   3, I=   2, J=  31


     1 CALLS TO GCG PACKAGE FOR TRANSPORT TIME STEP   1 IN FLOW TIME STEP  76 STRESS PERIOD   2
    15 TOTAL ITERATIONS

 NO OUTPUT CONTROL FOR STRESS PERIOD    2   TIME STEP  76
=======
 = 0.6697E-02(WHEN MIN. R.F.=1)  AT K=   3, I=   2, J=  30
     1 CALLS TO GCG PACKAGE FOR TRANSPORT TIME STEP   3 IN FLOW TIME STEP  73 STRESS PERIOD   2
    14 TOTAL ITERATIONS
>>>>>>> Stashed changes
 
 SOLVING FOR HEAD 
 FLOW MODEL IS TRANSIENT
 FLOW MODEL CONTAINS CONSTANT-HEAD CELLS


 MAXIMUM STEPSIZE DURING WHICH ANY PARTICLE CANNOT MOVE MORE THAN ONE CELL
<<<<<<< Updated upstream
 = 0.1632    (WHEN MIN. R.F.=1)  AT K=   3, I=   2, J=  29

 MAXIMUM STEPSIZE WHICH MEETS STABILITY CRITERION OF THE ADVECTION TERM
 (FOR PURE FINITE-DIFFERENCE OPTION, MIXELM=0) 
 = 0.1132    (WHEN MIN. R.F.=1)  AT K=   3, I=   2, J=  28
=======
 = 0.1869    (WHEN MIN. R.F.=1)  AT K=   3, I=   2, J=  31

 MAXIMUM STEPSIZE WHICH MEETS STABILITY CRITERION OF THE ADVECTION TERM
 (FOR PURE FINITE-DIFFERENCE OPTION, MIXELM=0) 
 = 0.1248    (WHEN MIN. R.F.=1)  AT K=   3, I=   2, J=  30
>>>>>>> Stashed changes


 TOTAL NUMBER OF POINT SOURCES/SINKS PRESENT IN THE FLOW MODEL =   240

 MAXIMUM STEPSIZE WHICH MEETS STABILITY CRITERION OF THE SINK & SOURCE TERM
 = 0.1000E+31(WHEN MIN. R.F.=1)  AT K=   0, I=   0, J=   0

 MAXIMUM STEPSIZE WHICH MEETS STABILITY CRITERION OF THE DISPERSION TERM
<<<<<<< Updated upstream
 = 0.6195E-02(WHEN MIN. R.F.=1)  AT K=   3, I=   2, J=  31
     1 CALLS TO GCG PACKAGE FOR TRANSPORT TIME STEP   2 IN FLOW TIME STEP  76 STRESS PERIOD   2
=======
 = 0.6697E-02(WHEN MIN. R.F.=1)  AT K=   3, I=   2, J=  30
     1 CALLS TO GCG PACKAGE FOR TRANSPORT TIME STEP   4 IN FLOW TIME STEP  73 STRESS PERIOD   2
>>>>>>> Stashed changes
    14 TOTAL ITERATIONS
 
 SOLVING FOR HEAD 
 FLOW MODEL IS TRANSIENT
 FLOW MODEL CONTAINS CONSTANT-HEAD CELLS


 MAXIMUM STEPSIZE DURING WHICH ANY PARTICLE CANNOT MOVE MORE THAN ONE CELL
<<<<<<< Updated upstream
 = 0.1632    (WHEN MIN. R.F.=1)  AT K=   3, I=   2, J=  29

 MAXIMUM STEPSIZE WHICH MEETS STABILITY CRITERION OF THE ADVECTION TERM
 (FOR PURE FINITE-DIFFERENCE OPTION, MIXELM=0) 
 = 0.1132    (WHEN MIN. R.F.=1)  AT K=   3, I=   2, J=  28
=======
 = 0.1869    (WHEN MIN. R.F.=1)  AT K=   3, I=   2, J=  31

 MAXIMUM STEPSIZE WHICH MEETS STABILITY CRITERION OF THE ADVECTION TERM
 (FOR PURE FINITE-DIFFERENCE OPTION, MIXELM=0) 
 = 0.1248    (WHEN MIN. R.F.=1)  AT K=   3, I=   2, J=  30
>>>>>>> Stashed changes


 TOTAL NUMBER OF POINT SOURCES/SINKS PRESENT IN THE FLOW MODEL =   240

 MAXIMUM STEPSIZE WHICH MEETS STABILITY CRITERION OF THE SINK & SOURCE TERM
 = 0.1000E+31(WHEN MIN. R.F.=1)  AT K=   0, I=   0, J=   0

 MAXIMUM STEPSIZE WHICH MEETS STABILITY CRITERION OF THE DISPERSION TERM
<<<<<<< Updated upstream
 = 0.6195E-02(WHEN MIN. R.F.=1)  AT K=   3, I=   2, J=  31
     1 CALLS TO GCG PACKAGE FOR TRANSPORT TIME STEP   3 IN FLOW TIME STEP  76 STRESS PERIOD   2
    13 TOTAL ITERATIONS
=======
 = 0.6697E-02(WHEN MIN. R.F.=1)  AT K=   3, I=   2, J=  30
     1 CALLS TO GCG PACKAGE FOR TRANSPORT TIME STEP   5 IN FLOW TIME STEP  73 STRESS PERIOD   2
    14 TOTAL ITERATIONS
>>>>>>> Stashed changes
 
 SOLVING FOR HEAD 
 FLOW MODEL IS TRANSIENT
 FLOW MODEL CONTAINS CONSTANT-HEAD CELLS


 MAXIMUM STEPSIZE DURING WHICH ANY PARTICLE CANNOT MOVE MORE THAN ONE CELL
<<<<<<< Updated upstream
 = 0.1632    (WHEN MIN. R.F.=1)  AT K=   3, I=   2, J=  29

 MAXIMUM STEPSIZE WHICH MEETS STABILITY CRITERION OF THE ADVECTION TERM
 (FOR PURE FINITE-DIFFERENCE OPTION, MIXELM=0) 
 = 0.1132    (WHEN MIN. R.F.=1)  AT K=   3, I=   2, J=  28
=======
 = 0.1869    (WHEN MIN. R.F.=1)  AT K=   3, I=   2, J=  31

 MAXIMUM STEPSIZE WHICH MEETS STABILITY CRITERION OF THE ADVECTION TERM
 (FOR PURE FINITE-DIFFERENCE OPTION, MIXELM=0) 
 = 0.1248    (WHEN MIN. R.F.=1)  AT K=   3, I=   2, J=  30
>>>>>>> Stashed changes


 TOTAL NUMBER OF POINT SOURCES/SINKS PRESENT IN THE FLOW MODEL =   240

 MAXIMUM STEPSIZE WHICH MEETS STABILITY CRITERION OF THE SINK & SOURCE TERM
 = 0.1000E+31(WHEN MIN. R.F.=1)  AT K=   0, I=   0, J=   0

 MAXIMUM STEPSIZE WHICH MEETS STABILITY CRITERION OF THE DISPERSION TERM
<<<<<<< Updated upstream
 = 0.6195E-02(WHEN MIN. R.F.=1)  AT K=   3, I=   2, J=  31
     1 CALLS TO GCG PACKAGE FOR TRANSPORT TIME STEP   4 IN FLOW TIME STEP  76 STRESS PERIOD   2
    13 TOTAL ITERATIONS
=======
 = 0.6697E-02(WHEN MIN. R.F.=1)  AT K=   3, I=   2, J=  30
     1 CALLS TO GCG PACKAGE FOR TRANSPORT TIME STEP   6 IN FLOW TIME STEP  73 STRESS PERIOD   2
    14 TOTAL ITERATIONS
>>>>>>> Stashed changes
 
 SOLVING FOR HEAD 
 FLOW MODEL IS TRANSIENT
 FLOW MODEL CONTAINS CONSTANT-HEAD CELLS


 MAXIMUM STEPSIZE DURING WHICH ANY PARTICLE CANNOT MOVE MORE THAN ONE CELL
<<<<<<< Updated upstream
 = 0.1632    (WHEN MIN. R.F.=1)  AT K=   3, I=   2, J=  29

 MAXIMUM STEPSIZE WHICH MEETS STABILITY CRITERION OF THE ADVECTION TERM
 (FOR PURE FINITE-DIFFERENCE OPTION, MIXELM=0) 
 = 0.1132    (WHEN MIN. R.F.=1)  AT K=   3, I=   2, J=  28
=======
 = 0.1869    (WHEN MIN. R.F.=1)  AT K=   3, I=   2, J=  31

 MAXIMUM STEPSIZE WHICH MEETS STABILITY CRITERION OF THE ADVECTION TERM
 (FOR PURE FINITE-DIFFERENCE OPTION, MIXELM=0) 
 = 0.1248    (WHEN MIN. R.F.=1)  AT K=   3, I=   2, J=  30
>>>>>>> Stashed changes


 TOTAL NUMBER OF POINT SOURCES/SINKS PRESENT IN THE FLOW MODEL =   240

 MAXIMUM STEPSIZE WHICH MEETS STABILITY CRITERION OF THE SINK & SOURCE TERM
 = 0.1000E+31(WHEN MIN. R.F.=1)  AT K=   0, I=   0, J=   0

 MAXIMUM STEPSIZE WHICH MEETS STABILITY CRITERION OF THE DISPERSION TERM
<<<<<<< Updated upstream
 = 0.6195E-02(WHEN MIN. R.F.=1)  AT K=   3, I=   2, J=  31
     1 CALLS TO GCG PACKAGE FOR TRANSPORT TIME STEP   5 IN FLOW TIME STEP  76 STRESS PERIOD   2
    13 TOTAL ITERATIONS
=======
 = 0.6697E-02(WHEN MIN. R.F.=1)  AT K=   3, I=   2, J=  30
     1 CALLS TO GCG PACKAGE FOR TRANSPORT TIME STEP   7 IN FLOW TIME STEP  73 STRESS PERIOD   2
    14 TOTAL ITERATIONS
>>>>>>> Stashed changes
 
 SOLVING FOR HEAD 
 FLOW MODEL IS TRANSIENT
 FLOW MODEL CONTAINS CONSTANT-HEAD CELLS


 MAXIMUM STEPSIZE DURING WHICH ANY PARTICLE CANNOT MOVE MORE THAN ONE CELL
<<<<<<< Updated upstream
 = 0.1632    (WHEN MIN. R.F.=1)  AT K=   3, I=   2, J=  29

 MAXIMUM STEPSIZE WHICH MEETS STABILITY CRITERION OF THE ADVECTION TERM
 (FOR PURE FINITE-DIFFERENCE OPTION, MIXELM=0) 
 = 0.1132    (WHEN MIN. R.F.=1)  AT K=   3, I=   2, J=  28
=======
 = 0.1869    (WHEN MIN. R.F.=1)  AT K=   3, I=   2, J=  31

 MAXIMUM STEPSIZE WHICH MEETS STABILITY CRITERION OF THE ADVECTION TERM
 (FOR PURE FINITE-DIFFERENCE OPTION, MIXELM=0) 
 = 0.1248    (WHEN MIN. R.F.=1)  AT K=   3, I=   2, J=  30
>>>>>>> Stashed changes


 TOTAL NUMBER OF POINT SOURCES/SINKS PRESENT IN THE FLOW MODEL =   240

 MAXIMUM STEPSIZE WHICH MEETS STABILITY CRITERION OF THE SINK & SOURCE TERM
 = 0.1000E+31(WHEN MIN. R.F.=1)  AT K=   0, I=   0, J=   0

 MAXIMUM STEPSIZE WHICH MEETS STABILITY CRITERION OF THE DISPERSION TERM
<<<<<<< Updated upstream
 = 0.6195E-02(WHEN MIN. R.F.=1)  AT K=   3, I=   2, J=  31
     1 CALLS TO GCG PACKAGE FOR TRANSPORT TIME STEP   6 IN FLOW TIME STEP  76 STRESS PERIOD   2
    13 TOTAL ITERATIONS
=======
 = 0.6697E-02(WHEN MIN. R.F.=1)  AT K=   3, I=   2, J=  30
     1 CALLS TO GCG PACKAGE FOR TRANSPORT TIME STEP   8 IN FLOW TIME STEP  73 STRESS PERIOD   2
     5 TOTAL ITERATIONS
  MAXIMUM CONCENTRATION CHANGES FOR EACH ITERATION:
  MAX. CHANGE LAYER,ROW,COL MAX. CHANGE LAYER,ROW,COL MAX. CHANGE LAYER,ROW,COL MAX. CHANGE LAYER,ROW,COL MAX. CHANGE LAYER,ROW,COL
 ------------------------------------------------------------------------------------------------------------------------------------
   0.1228E-03 ( 17,  1, 53)  0.3262E-05 (  5,  2, 62)  0.5881E-06 (  4,  2, 54)  0.1746E-06 (  3,  2, 44)  0.6260E-07 (  4,  1, 31)
 UBDSV1 SAVING "         STORAGE" ON UNIT  53 AT TIME STEP 73, STRESS PERIOD   2
 UBDSV2 SAVING "   CONSTANT HEAD" ON UNIT  53 AT TIME STEP 73, STRESS PERIOD   2
 UBDSV1 SAVING "FLOW RIGHT FACE " ON UNIT  53 AT TIME STEP 73, STRESS PERIOD   2
 UBDSV1 SAVING "FLOW FRONT FACE " ON UNIT  53 AT TIME STEP 73, STRESS PERIOD   2
 UBDSV1 SAVING "FLOW LOWER FACE " ON UNIT  53 AT TIME STEP 73, STRESS PERIOD   2
 UBDSV1 SAVING "            DCDT" ON UNIT  53 AT TIME STEP 73, STRESS PERIOD   2

 HEAD WILL BE SAVED ON UNIT   51 AT END OF TIME STEP  73, STRESS PERIOD    2


                                          ================================================
                                                         FROM TIME =   74.000     TO    75.000    

>>>>>>> Stashed changes
 
 SOLVING FOR HEAD 
 FLOW MODEL IS TRANSIENT
 FLOW MODEL CONTAINS CONSTANT-HEAD CELLS


 MAXIMUM STEPSIZE DURING WHICH ANY PARTICLE CANNOT MOVE MORE THAN ONE CELL
<<<<<<< Updated upstream
 = 0.1632    (WHEN MIN. R.F.=1)  AT K=   3, I=   2, J=  29

 MAXIMUM STEPSIZE WHICH MEETS STABILITY CRITERION OF THE ADVECTION TERM
 (FOR PURE FINITE-DIFFERENCE OPTION, MIXELM=0) 
 = 0.1132    (WHEN MIN. R.F.=1)  AT K=   3, I=   2, J=  28
=======
 = 0.1869    (WHEN MIN. R.F.=1)  AT K=   3, I=   2, J=  31

 MAXIMUM STEPSIZE WHICH MEETS STABILITY CRITERION OF THE ADVECTION TERM
 (FOR PURE FINITE-DIFFERENCE OPTION, MIXELM=0) 
 = 0.1248    (WHEN MIN. R.F.=1)  AT K=   3, I=   2, J=  30
>>>>>>> Stashed changes


 TOTAL NUMBER OF POINT SOURCES/SINKS PRESENT IN THE FLOW MODEL =   240

 MAXIMUM STEPSIZE WHICH MEETS STABILITY CRITERION OF THE SINK & SOURCE TERM
 = 0.1000E+31(WHEN MIN. R.F.=1)  AT K=   0, I=   0, J=   0

 MAXIMUM STEPSIZE WHICH MEETS STABILITY CRITERION OF THE DISPERSION TERM
<<<<<<< Updated upstream
 = 0.6195E-02(WHEN MIN. R.F.=1)  AT K=   3, I=   2, J=  31
     1 CALLS TO GCG PACKAGE FOR TRANSPORT TIME STEP   7 IN FLOW TIME STEP  76 STRESS PERIOD   2
    13 TOTAL ITERATIONS
=======
 = 0.6697E-02(WHEN MIN. R.F.=1)  AT K=   3, I=   2, J=  30


     1 CALLS TO GCG PACKAGE FOR TRANSPORT TIME STEP   1 IN FLOW TIME STEP  74 STRESS PERIOD   2
    14 TOTAL ITERATIONS

 OUTPUT CONTROL FOR STRESS PERIOD    2   TIME STEP  74
    SAVE HEAD FOR ALL LAYERS
    SAVE BUDGET
>>>>>>> Stashed changes
 
 SOLVING FOR HEAD 
 FLOW MODEL IS TRANSIENT
 FLOW MODEL CONTAINS CONSTANT-HEAD CELLS


 MAXIMUM STEPSIZE DURING WHICH ANY PARTICLE CANNOT MOVE MORE THAN ONE CELL
<<<<<<< Updated upstream
 = 0.1632    (WHEN MIN. R.F.=1)  AT K=   3, I=   2, J=  29

 MAXIMUM STEPSIZE WHICH MEETS STABILITY CRITERION OF THE ADVECTION TERM
 (FOR PURE FINITE-DIFFERENCE OPTION, MIXELM=0) 
 = 0.1132    (WHEN MIN. R.F.=1)  AT K=   3, I=   2, J=  28
=======
 = 0.1869    (WHEN MIN. R.F.=1)  AT K=   3, I=   2, J=  31

 MAXIMUM STEPSIZE WHICH MEETS STABILITY CRITERION OF THE ADVECTION TERM
 (FOR PURE FINITE-DIFFERENCE OPTION, MIXELM=0) 
 = 0.1248    (WHEN MIN. R.F.=1)  AT K=   3, I=   2, J=  30
>>>>>>> Stashed changes


 TOTAL NUMBER OF POINT SOURCES/SINKS PRESENT IN THE FLOW MODEL =   240

 MAXIMUM STEPSIZE WHICH MEETS STABILITY CRITERION OF THE SINK & SOURCE TERM
 = 0.1000E+31(WHEN MIN. R.F.=1)  AT K=   0, I=   0, J=   0

 MAXIMUM STEPSIZE WHICH MEETS STABILITY CRITERION OF THE DISPERSION TERM
<<<<<<< Updated upstream
 = 0.6195E-02(WHEN MIN. R.F.=1)  AT K=   3, I=   2, J=  31
     1 CALLS TO GCG PACKAGE FOR TRANSPORT TIME STEP   8 IN FLOW TIME STEP  76 STRESS PERIOD   2
    13 TOTAL ITERATIONS
=======
 = 0.6697E-02(WHEN MIN. R.F.=1)  AT K=   3, I=   2, J=  30
     1 CALLS TO GCG PACKAGE FOR TRANSPORT TIME STEP   2 IN FLOW TIME STEP  74 STRESS PERIOD   2
    14 TOTAL ITERATIONS
>>>>>>> Stashed changes
 
 SOLVING FOR HEAD 
 FLOW MODEL IS TRANSIENT
 FLOW MODEL CONTAINS CONSTANT-HEAD CELLS


 MAXIMUM STEPSIZE DURING WHICH ANY PARTICLE CANNOT MOVE MORE THAN ONE CELL
<<<<<<< Updated upstream
 = 0.1632    (WHEN MIN. R.F.=1)  AT K=   3, I=   2, J=  29

 MAXIMUM STEPSIZE WHICH MEETS STABILITY CRITERION OF THE ADVECTION TERM
 (FOR PURE FINITE-DIFFERENCE OPTION, MIXELM=0) 
 = 0.1132    (WHEN MIN. R.F.=1)  AT K=   3, I=   2, J=  28
=======
 = 0.1869    (WHEN MIN. R.F.=1)  AT K=   3, I=   2, J=  31

 MAXIMUM STEPSIZE WHICH MEETS STABILITY CRITERION OF THE ADVECTION TERM
 (FOR PURE FINITE-DIFFERENCE OPTION, MIXELM=0) 
 = 0.1248    (WHEN MIN. R.F.=1)  AT K=   3, I=   2, J=  30
>>>>>>> Stashed changes


 TOTAL NUMBER OF POINT SOURCES/SINKS PRESENT IN THE FLOW MODEL =   240

 MAXIMUM STEPSIZE WHICH MEETS STABILITY CRITERION OF THE SINK & SOURCE TERM
 = 0.1000E+31(WHEN MIN. R.F.=1)  AT K=   0, I=   0, J=   0

 MAXIMUM STEPSIZE WHICH MEETS STABILITY CRITERION OF THE DISPERSION TERM
<<<<<<< Updated upstream
 = 0.6195E-02(WHEN MIN. R.F.=1)  AT K=   3, I=   2, J=  31
     1 CALLS TO GCG PACKAGE FOR TRANSPORT TIME STEP   9 IN FLOW TIME STEP  76 STRESS PERIOD   2
     5 TOTAL ITERATIONS
  MAXIMUM CONCENTRATION CHANGES FOR EACH ITERATION:
  MAX. CHANGE LAYER,ROW,COL MAX. CHANGE LAYER,ROW,COL MAX. CHANGE LAYER,ROW,COL MAX. CHANGE LAYER,ROW,COL MAX. CHANGE LAYER,ROW,COL
 ------------------------------------------------------------------------------------------------------------------------------------
   0.1367E-03 ( 14,  3, 52)  0.4923E-05 (  5,  2, 64)  0.9091E-06 (  6,  1, 56)  0.1252E-06 (  4,  2, 46)  0.6285E-07 (  3,  3, 28)


                                          ================================================
                                                         FROM TIME =   77.000     TO    78.000    

=======
 = 0.6697E-02(WHEN MIN. R.F.=1)  AT K=   3, I=   2, J=  30
     1 CALLS TO GCG PACKAGE FOR TRANSPORT TIME STEP   3 IN FLOW TIME STEP  74 STRESS PERIOD   2
    14 TOTAL ITERATIONS
>>>>>>> Stashed changes
 
 SOLVING FOR HEAD 
 FLOW MODEL IS TRANSIENT
 FLOW MODEL CONTAINS CONSTANT-HEAD CELLS


 MAXIMUM STEPSIZE DURING WHICH ANY PARTICLE CANNOT MOVE MORE THAN ONE CELL
<<<<<<< Updated upstream
 = 0.1632    (WHEN MIN. R.F.=1)  AT K=   3, I=   2, J=  29

 MAXIMUM STEPSIZE WHICH MEETS STABILITY CRITERION OF THE ADVECTION TERM
 (FOR PURE FINITE-DIFFERENCE OPTION, MIXELM=0) 
 = 0.1132    (WHEN MIN. R.F.=1)  AT K=   3, I=   2, J=  28
=======
 = 0.1869    (WHEN MIN. R.F.=1)  AT K=   3, I=   2, J=  31

 MAXIMUM STEPSIZE WHICH MEETS STABILITY CRITERION OF THE ADVECTION TERM
 (FOR PURE FINITE-DIFFERENCE OPTION, MIXELM=0) 
 = 0.1248    (WHEN MIN. R.F.=1)  AT K=   3, I=   2, J=  30
>>>>>>> Stashed changes


 TOTAL NUMBER OF POINT SOURCES/SINKS PRESENT IN THE FLOW MODEL =   240

 MAXIMUM STEPSIZE WHICH MEETS STABILITY CRITERION OF THE SINK & SOURCE TERM
 = 0.1000E+31(WHEN MIN. R.F.=1)  AT K=   0, I=   0, J=   0

 MAXIMUM STEPSIZE WHICH MEETS STABILITY CRITERION OF THE DISPERSION TERM
<<<<<<< Updated upstream
 = 0.6195E-02(WHEN MIN. R.F.=1)  AT K=   3, I=   2, J=  31


     1 CALLS TO GCG PACKAGE FOR TRANSPORT TIME STEP   1 IN FLOW TIME STEP  77 STRESS PERIOD   2
    12 TOTAL ITERATIONS

 NO OUTPUT CONTROL FOR STRESS PERIOD    2   TIME STEP  77
=======
 = 0.6697E-02(WHEN MIN. R.F.=1)  AT K=   3, I=   2, J=  30
     1 CALLS TO GCG PACKAGE FOR TRANSPORT TIME STEP   4 IN FLOW TIME STEP  74 STRESS PERIOD   2
    14 TOTAL ITERATIONS
>>>>>>> Stashed changes
 
 SOLVING FOR HEAD 
 FLOW MODEL IS TRANSIENT
 FLOW MODEL CONTAINS CONSTANT-HEAD CELLS


 MAXIMUM STEPSIZE DURING WHICH ANY PARTICLE CANNOT MOVE MORE THAN ONE CELL
<<<<<<< Updated upstream
 = 0.1632    (WHEN MIN. R.F.=1)  AT K=   3, I=   2, J=  29

 MAXIMUM STEPSIZE WHICH MEETS STABILITY CRITERION OF THE ADVECTION TERM
 (FOR PURE FINITE-DIFFERENCE OPTION, MIXELM=0) 
 = 0.1132    (WHEN MIN. R.F.=1)  AT K=   3, I=   2, J=  28
=======
 = 0.1869    (WHEN MIN. R.F.=1)  AT K=   3, I=   2, J=  31

 MAXIMUM STEPSIZE WHICH MEETS STABILITY CRITERION OF THE ADVECTION TERM
 (FOR PURE FINITE-DIFFERENCE OPTION, MIXELM=0) 
 = 0.1248    (WHEN MIN. R.F.=1)  AT K=   3, I=   2, J=  30
>>>>>>> Stashed changes


 TOTAL NUMBER OF POINT SOURCES/SINKS PRESENT IN THE FLOW MODEL =   240

 MAXIMUM STEPSIZE WHICH MEETS STABILITY CRITERION OF THE SINK & SOURCE TERM
 = 0.1000E+31(WHEN MIN. R.F.=1)  AT K=   0, I=   0, J=   0

 MAXIMUM STEPSIZE WHICH MEETS STABILITY CRITERION OF THE DISPERSION TERM
<<<<<<< Updated upstream
 = 0.6195E-02(WHEN MIN. R.F.=1)  AT K=   3, I=   2, J=  31
     1 CALLS TO GCG PACKAGE FOR TRANSPORT TIME STEP   2 IN FLOW TIME STEP  77 STRESS PERIOD   2
    13 TOTAL ITERATIONS
=======
 = 0.6697E-02(WHEN MIN. R.F.=1)  AT K=   3, I=   2, J=  30
     1 CALLS TO GCG PACKAGE FOR TRANSPORT TIME STEP   5 IN FLOW TIME STEP  74 STRESS PERIOD   2
    14 TOTAL ITERATIONS
>>>>>>> Stashed changes
 
 SOLVING FOR HEAD 
 FLOW MODEL IS TRANSIENT
 FLOW MODEL CONTAINS CONSTANT-HEAD CELLS


 MAXIMUM STEPSIZE DURING WHICH ANY PARTICLE CANNOT MOVE MORE THAN ONE CELL
<<<<<<< Updated upstream
 = 0.1632    (WHEN MIN. R.F.=1)  AT K=   3, I=   2, J=  29

 MAXIMUM STEPSIZE WHICH MEETS STABILITY CRITERION OF THE ADVECTION TERM
 (FOR PURE FINITE-DIFFERENCE OPTION, MIXELM=0) 
 = 0.1132    (WHEN MIN. R.F.=1)  AT K=   3, I=   2, J=  28
=======
 = 0.1869    (WHEN MIN. R.F.=1)  AT K=   3, I=   2, J=  31

 MAXIMUM STEPSIZE WHICH MEETS STABILITY CRITERION OF THE ADVECTION TERM
 (FOR PURE FINITE-DIFFERENCE OPTION, MIXELM=0) 
 = 0.1248    (WHEN MIN. R.F.=1)  AT K=   3, I=   2, J=  30
>>>>>>> Stashed changes


 TOTAL NUMBER OF POINT SOURCES/SINKS PRESENT IN THE FLOW MODEL =   240

 MAXIMUM STEPSIZE WHICH MEETS STABILITY CRITERION OF THE SINK & SOURCE TERM
 = 0.1000E+31(WHEN MIN. R.F.=1)  AT K=   0, I=   0, J=   0

 MAXIMUM STEPSIZE WHICH MEETS STABILITY CRITERION OF THE DISPERSION TERM
<<<<<<< Updated upstream
 = 0.6195E-02(WHEN MIN. R.F.=1)  AT K=   3, I=   2, J=  31
     1 CALLS TO GCG PACKAGE FOR TRANSPORT TIME STEP   3 IN FLOW TIME STEP  77 STRESS PERIOD   2
    13 TOTAL ITERATIONS
=======
 = 0.6697E-02(WHEN MIN. R.F.=1)  AT K=   3, I=   2, J=  30
     1 CALLS TO GCG PACKAGE FOR TRANSPORT TIME STEP   6 IN FLOW TIME STEP  74 STRESS PERIOD   2
    14 TOTAL ITERATIONS
>>>>>>> Stashed changes
 
 SOLVING FOR HEAD 
 FLOW MODEL IS TRANSIENT
 FLOW MODEL CONTAINS CONSTANT-HEAD CELLS


 MAXIMUM STEPSIZE DURING WHICH ANY PARTICLE CANNOT MOVE MORE THAN ONE CELL
<<<<<<< Updated upstream
 = 0.1632    (WHEN MIN. R.F.=1)  AT K=   3, I=   2, J=  29

 MAXIMUM STEPSIZE WHICH MEETS STABILITY CRITERION OF THE ADVECTION TERM
 (FOR PURE FINITE-DIFFERENCE OPTION, MIXELM=0) 
 = 0.1132    (WHEN MIN. R.F.=1)  AT K=   3, I=   2, J=  28
=======
 = 0.1869    (WHEN MIN. R.F.=1)  AT K=   3, I=   2, J=  31

 MAXIMUM STEPSIZE WHICH MEETS STABILITY CRITERION OF THE ADVECTION TERM
 (FOR PURE FINITE-DIFFERENCE OPTION, MIXELM=0) 
 = 0.1248    (WHEN MIN. R.F.=1)  AT K=   3, I=   2, J=  30
>>>>>>> Stashed changes


 TOTAL NUMBER OF POINT SOURCES/SINKS PRESENT IN THE FLOW MODEL =   240

 MAXIMUM STEPSIZE WHICH MEETS STABILITY CRITERION OF THE SINK & SOURCE TERM
 = 0.1000E+31(WHEN MIN. R.F.=1)  AT K=   0, I=   0, J=   0

 MAXIMUM STEPSIZE WHICH MEETS STABILITY CRITERION OF THE DISPERSION TERM
<<<<<<< Updated upstream
 = 0.6195E-02(WHEN MIN. R.F.=1)  AT K=   3, I=   2, J=  31
     1 CALLS TO GCG PACKAGE FOR TRANSPORT TIME STEP   4 IN FLOW TIME STEP  77 STRESS PERIOD   2
    13 TOTAL ITERATIONS
=======
 = 0.6697E-02(WHEN MIN. R.F.=1)  AT K=   3, I=   2, J=  30
     1 CALLS TO GCG PACKAGE FOR TRANSPORT TIME STEP   7 IN FLOW TIME STEP  74 STRESS PERIOD   2
    14 TOTAL ITERATIONS
>>>>>>> Stashed changes
 
 SOLVING FOR HEAD 
 FLOW MODEL IS TRANSIENT
 FLOW MODEL CONTAINS CONSTANT-HEAD CELLS


 MAXIMUM STEPSIZE DURING WHICH ANY PARTICLE CANNOT MOVE MORE THAN ONE CELL
<<<<<<< Updated upstream
 = 0.1632    (WHEN MIN. R.F.=1)  AT K=   3, I=   2, J=  29

 MAXIMUM STEPSIZE WHICH MEETS STABILITY CRITERION OF THE ADVECTION TERM
 (FOR PURE FINITE-DIFFERENCE OPTION, MIXELM=0) 
 = 0.1132    (WHEN MIN. R.F.=1)  AT K=   3, I=   2, J=  28
=======
 = 0.1869    (WHEN MIN. R.F.=1)  AT K=   3, I=   2, J=  31

 MAXIMUM STEPSIZE WHICH MEETS STABILITY CRITERION OF THE ADVECTION TERM
 (FOR PURE FINITE-DIFFERENCE OPTION, MIXELM=0) 
 = 0.1248    (WHEN MIN. R.F.=1)  AT K=   3, I=   2, J=  30
>>>>>>> Stashed changes


 TOTAL NUMBER OF POINT SOURCES/SINKS PRESENT IN THE FLOW MODEL =   240

 MAXIMUM STEPSIZE WHICH MEETS STABILITY CRITERION OF THE SINK & SOURCE TERM
 = 0.1000E+31(WHEN MIN. R.F.=1)  AT K=   0, I=   0, J=   0

 MAXIMUM STEPSIZE WHICH MEETS STABILITY CRITERION OF THE DISPERSION TERM
<<<<<<< Updated upstream
 = 0.6195E-02(WHEN MIN. R.F.=1)  AT K=   3, I=   2, J=  31
     1 CALLS TO GCG PACKAGE FOR TRANSPORT TIME STEP   5 IN FLOW TIME STEP  77 STRESS PERIOD   2
    13 TOTAL ITERATIONS
=======
 = 0.6697E-02(WHEN MIN. R.F.=1)  AT K=   3, I=   2, J=  30
     1 CALLS TO GCG PACKAGE FOR TRANSPORT TIME STEP   8 IN FLOW TIME STEP  74 STRESS PERIOD   2
     5 TOTAL ITERATIONS
  MAXIMUM CONCENTRATION CHANGES FOR EACH ITERATION:
  MAX. CHANGE LAYER,ROW,COL MAX. CHANGE LAYER,ROW,COL MAX. CHANGE LAYER,ROW,COL MAX. CHANGE LAYER,ROW,COL MAX. CHANGE LAYER,ROW,COL
 ------------------------------------------------------------------------------------------------------------------------------------
   0.1178E-03 ( 17,  1, 53)  0.3174E-05 (  5,  2, 62)  0.5698E-06 (  4,  2, 54)  0.1714E-06 (  3,  2, 38)  0.5673E-07 (  4,  2, 38)
 UBDSV1 SAVING "         STORAGE" ON UNIT  53 AT TIME STEP 74, STRESS PERIOD   2
 UBDSV2 SAVING "   CONSTANT HEAD" ON UNIT  53 AT TIME STEP 74, STRESS PERIOD   2
 UBDSV1 SAVING "FLOW RIGHT FACE " ON UNIT  53 AT TIME STEP 74, STRESS PERIOD   2
 UBDSV1 SAVING "FLOW FRONT FACE " ON UNIT  53 AT TIME STEP 74, STRESS PERIOD   2
 UBDSV1 SAVING "FLOW LOWER FACE " ON UNIT  53 AT TIME STEP 74, STRESS PERIOD   2
 UBDSV1 SAVING "            DCDT" ON UNIT  53 AT TIME STEP 74, STRESS PERIOD   2

 HEAD WILL BE SAVED ON UNIT   51 AT END OF TIME STEP  74, STRESS PERIOD    2


                                          ================================================
                                                         FROM TIME =   75.000     TO    76.000    

>>>>>>> Stashed changes
 
 SOLVING FOR HEAD 
 FLOW MODEL IS TRANSIENT
 FLOW MODEL CONTAINS CONSTANT-HEAD CELLS


 MAXIMUM STEPSIZE DURING WHICH ANY PARTICLE CANNOT MOVE MORE THAN ONE CELL
<<<<<<< Updated upstream
 = 0.1632    (WHEN MIN. R.F.=1)  AT K=   3, I=   2, J=  29

 MAXIMUM STEPSIZE WHICH MEETS STABILITY CRITERION OF THE ADVECTION TERM
 (FOR PURE FINITE-DIFFERENCE OPTION, MIXELM=0) 
 = 0.1132    (WHEN MIN. R.F.=1)  AT K=   3, I=   2, J=  28
=======
 = 0.1869    (WHEN MIN. R.F.=1)  AT K=   3, I=   2, J=  31

 MAXIMUM STEPSIZE WHICH MEETS STABILITY CRITERION OF THE ADVECTION TERM
 (FOR PURE FINITE-DIFFERENCE OPTION, MIXELM=0) 
 = 0.1248    (WHEN MIN. R.F.=1)  AT K=   3, I=   2, J=  30
>>>>>>> Stashed changes


 TOTAL NUMBER OF POINT SOURCES/SINKS PRESENT IN THE FLOW MODEL =   240

 MAXIMUM STEPSIZE WHICH MEETS STABILITY CRITERION OF THE SINK & SOURCE TERM
 = 0.1000E+31(WHEN MIN. R.F.=1)  AT K=   0, I=   0, J=   0

 MAXIMUM STEPSIZE WHICH MEETS STABILITY CRITERION OF THE DISPERSION TERM
<<<<<<< Updated upstream
 = 0.6195E-02(WHEN MIN. R.F.=1)  AT K=   3, I=   2, J=  31
     1 CALLS TO GCG PACKAGE FOR TRANSPORT TIME STEP   6 IN FLOW TIME STEP  77 STRESS PERIOD   2
    13 TOTAL ITERATIONS
=======
 = 0.6697E-02(WHEN MIN. R.F.=1)  AT K=   3, I=   2, J=  30


     1 CALLS TO GCG PACKAGE FOR TRANSPORT TIME STEP   1 IN FLOW TIME STEP  75 STRESS PERIOD   2
    14 TOTAL ITERATIONS

 OUTPUT CONTROL FOR STRESS PERIOD    2   TIME STEP  75
    SAVE HEAD FOR ALL LAYERS
    SAVE BUDGET
>>>>>>> Stashed changes
 
 SOLVING FOR HEAD 
 FLOW MODEL IS TRANSIENT
 FLOW MODEL CONTAINS CONSTANT-HEAD CELLS


 MAXIMUM STEPSIZE DURING WHICH ANY PARTICLE CANNOT MOVE MORE THAN ONE CELL
<<<<<<< Updated upstream
 = 0.1632    (WHEN MIN. R.F.=1)  AT K=   3, I=   2, J=  29

 MAXIMUM STEPSIZE WHICH MEETS STABILITY CRITERION OF THE ADVECTION TERM
 (FOR PURE FINITE-DIFFERENCE OPTION, MIXELM=0) 
 = 0.1132    (WHEN MIN. R.F.=1)  AT K=   3, I=   2, J=  28
=======
 = 0.1869    (WHEN MIN. R.F.=1)  AT K=   3, I=   2, J=  31

 MAXIMUM STEPSIZE WHICH MEETS STABILITY CRITERION OF THE ADVECTION TERM
 (FOR PURE FINITE-DIFFERENCE OPTION, MIXELM=0) 
 = 0.1248    (WHEN MIN. R.F.=1)  AT K=   3, I=   2, J=  30
>>>>>>> Stashed changes


 TOTAL NUMBER OF POINT SOURCES/SINKS PRESENT IN THE FLOW MODEL =   240

 MAXIMUM STEPSIZE WHICH MEETS STABILITY CRITERION OF THE SINK & SOURCE TERM
 = 0.1000E+31(WHEN MIN. R.F.=1)  AT K=   0, I=   0, J=   0

 MAXIMUM STEPSIZE WHICH MEETS STABILITY CRITERION OF THE DISPERSION TERM
<<<<<<< Updated upstream
 = 0.6195E-02(WHEN MIN. R.F.=1)  AT K=   3, I=   2, J=  31
     1 CALLS TO GCG PACKAGE FOR TRANSPORT TIME STEP   7 IN FLOW TIME STEP  77 STRESS PERIOD   2
    13 TOTAL ITERATIONS
=======
 = 0.6697E-02(WHEN MIN. R.F.=1)  AT K=   3, I=   2, J=  30
     1 CALLS TO GCG PACKAGE FOR TRANSPORT TIME STEP   2 IN FLOW TIME STEP  75 STRESS PERIOD   2
    14 TOTAL ITERATIONS
>>>>>>> Stashed changes
 
 SOLVING FOR HEAD 
 FLOW MODEL IS TRANSIENT
 FLOW MODEL CONTAINS CONSTANT-HEAD CELLS


 MAXIMUM STEPSIZE DURING WHICH ANY PARTICLE CANNOT MOVE MORE THAN ONE CELL
<<<<<<< Updated upstream
 = 0.1632    (WHEN MIN. R.F.=1)  AT K=   3, I=   2, J=  29

 MAXIMUM STEPSIZE WHICH MEETS STABILITY CRITERION OF THE ADVECTION TERM
 (FOR PURE FINITE-DIFFERENCE OPTION, MIXELM=0) 
 = 0.1132    (WHEN MIN. R.F.=1)  AT K=   3, I=   2, J=  28
=======
 = 0.1869    (WHEN MIN. R.F.=1)  AT K=   3, I=   2, J=  31

 MAXIMUM STEPSIZE WHICH MEETS STABILITY CRITERION OF THE ADVECTION TERM
 (FOR PURE FINITE-DIFFERENCE OPTION, MIXELM=0) 
 = 0.1248    (WHEN MIN. R.F.=1)  AT K=   3, I=   2, J=  30
>>>>>>> Stashed changes


 TOTAL NUMBER OF POINT SOURCES/SINKS PRESENT IN THE FLOW MODEL =   240

 MAXIMUM STEPSIZE WHICH MEETS STABILITY CRITERION OF THE SINK & SOURCE TERM
 = 0.1000E+31(WHEN MIN. R.F.=1)  AT K=   0, I=   0, J=   0

 MAXIMUM STEPSIZE WHICH MEETS STABILITY CRITERION OF THE DISPERSION TERM
<<<<<<< Updated upstream
 = 0.6195E-02(WHEN MIN. R.F.=1)  AT K=   3, I=   2, J=  31
     1 CALLS TO GCG PACKAGE FOR TRANSPORT TIME STEP   8 IN FLOW TIME STEP  77 STRESS PERIOD   2
    13 TOTAL ITERATIONS
=======
 = 0.6697E-02(WHEN MIN. R.F.=1)  AT K=   3, I=   2, J=  30
     1 CALLS TO GCG PACKAGE FOR TRANSPORT TIME STEP   3 IN FLOW TIME STEP  75 STRESS PERIOD   2
    14 TOTAL ITERATIONS
>>>>>>> Stashed changes
 
 SOLVING FOR HEAD 
 FLOW MODEL IS TRANSIENT
 FLOW MODEL CONTAINS CONSTANT-HEAD CELLS


 MAXIMUM STEPSIZE DURING WHICH ANY PARTICLE CANNOT MOVE MORE THAN ONE CELL
<<<<<<< Updated upstream
 = 0.1632    (WHEN MIN. R.F.=1)  AT K=   3, I=   2, J=  29

 MAXIMUM STEPSIZE WHICH MEETS STABILITY CRITERION OF THE ADVECTION TERM
 (FOR PURE FINITE-DIFFERENCE OPTION, MIXELM=0) 
 = 0.1132    (WHEN MIN. R.F.=1)  AT K=   3, I=   2, J=  28
=======
 = 0.1869    (WHEN MIN. R.F.=1)  AT K=   3, I=   2, J=  31

 MAXIMUM STEPSIZE WHICH MEETS STABILITY CRITERION OF THE ADVECTION TERM
 (FOR PURE FINITE-DIFFERENCE OPTION, MIXELM=0) 
 = 0.1248    (WHEN MIN. R.F.=1)  AT K=   3, I=   2, J=  30
>>>>>>> Stashed changes


 TOTAL NUMBER OF POINT SOURCES/SINKS PRESENT IN THE FLOW MODEL =   240

 MAXIMUM STEPSIZE WHICH MEETS STABILITY CRITERION OF THE SINK & SOURCE TERM
 = 0.1000E+31(WHEN MIN. R.F.=1)  AT K=   0, I=   0, J=   0

 MAXIMUM STEPSIZE WHICH MEETS STABILITY CRITERION OF THE DISPERSION TERM
<<<<<<< Updated upstream
 = 0.6195E-02(WHEN MIN. R.F.=1)  AT K=   3, I=   2, J=  31
     1 CALLS TO GCG PACKAGE FOR TRANSPORT TIME STEP   9 IN FLOW TIME STEP  77 STRESS PERIOD   2
     5 TOTAL ITERATIONS
  MAXIMUM CONCENTRATION CHANGES FOR EACH ITERATION:
  MAX. CHANGE LAYER,ROW,COL MAX. CHANGE LAYER,ROW,COL MAX. CHANGE LAYER,ROW,COL MAX. CHANGE LAYER,ROW,COL MAX. CHANGE LAYER,ROW,COL
 ------------------------------------------------------------------------------------------------------------------------------------
   0.1353E-03 ( 14,  3, 52)  0.4801E-05 (  5,  2, 64)  0.8818E-06 (  6,  1, 56)  0.1190E-06 (  4,  2, 46)  0.5924E-07 (  3,  3, 29)


                                          ================================================
                                                         FROM TIME =   78.000     TO    79.000    

=======
 = 0.6697E-02(WHEN MIN. R.F.=1)  AT K=   3, I=   2, J=  30
     1 CALLS TO GCG PACKAGE FOR TRANSPORT TIME STEP   4 IN FLOW TIME STEP  75 STRESS PERIOD   2
    14 TOTAL ITERATIONS
>>>>>>> Stashed changes
 
 SOLVING FOR HEAD 
 FLOW MODEL IS TRANSIENT
 FLOW MODEL CONTAINS CONSTANT-HEAD CELLS


 MAXIMUM STEPSIZE DURING WHICH ANY PARTICLE CANNOT MOVE MORE THAN ONE CELL
<<<<<<< Updated upstream
 = 0.1632    (WHEN MIN. R.F.=1)  AT K=   3, I=   2, J=  29

 MAXIMUM STEPSIZE WHICH MEETS STABILITY CRITERION OF THE ADVECTION TERM
 (FOR PURE FINITE-DIFFERENCE OPTION, MIXELM=0) 
 = 0.1132    (WHEN MIN. R.F.=1)  AT K=   3, I=   2, J=  28
=======
 = 0.1869    (WHEN MIN. R.F.=1)  AT K=   3, I=   2, J=  31

 MAXIMUM STEPSIZE WHICH MEETS STABILITY CRITERION OF THE ADVECTION TERM
 (FOR PURE FINITE-DIFFERENCE OPTION, MIXELM=0) 
 = 0.1248    (WHEN MIN. R.F.=1)  AT K=   3, I=   2, J=  30
>>>>>>> Stashed changes


 TOTAL NUMBER OF POINT SOURCES/SINKS PRESENT IN THE FLOW MODEL =   240

 MAXIMUM STEPSIZE WHICH MEETS STABILITY CRITERION OF THE SINK & SOURCE TERM
 = 0.1000E+31(WHEN MIN. R.F.=1)  AT K=   0, I=   0, J=   0

 MAXIMUM STEPSIZE WHICH MEETS STABILITY CRITERION OF THE DISPERSION TERM
<<<<<<< Updated upstream
 = 0.6195E-02(WHEN MIN. R.F.=1)  AT K=   3, I=   2, J=  31


     1 CALLS TO GCG PACKAGE FOR TRANSPORT TIME STEP   1 IN FLOW TIME STEP  78 STRESS PERIOD   2
    13 TOTAL ITERATIONS

 NO OUTPUT CONTROL FOR STRESS PERIOD    2   TIME STEP  78
=======
 = 0.6697E-02(WHEN MIN. R.F.=1)  AT K=   3, I=   2, J=  30
     1 CALLS TO GCG PACKAGE FOR TRANSPORT TIME STEP   5 IN FLOW TIME STEP  75 STRESS PERIOD   2
    14 TOTAL ITERATIONS
>>>>>>> Stashed changes
 
 SOLVING FOR HEAD 
 FLOW MODEL IS TRANSIENT
 FLOW MODEL CONTAINS CONSTANT-HEAD CELLS


 MAXIMUM STEPSIZE DURING WHICH ANY PARTICLE CANNOT MOVE MORE THAN ONE CELL
<<<<<<< Updated upstream
 = 0.1632    (WHEN MIN. R.F.=1)  AT K=   3, I=   2, J=  29

 MAXIMUM STEPSIZE WHICH MEETS STABILITY CRITERION OF THE ADVECTION TERM
 (FOR PURE FINITE-DIFFERENCE OPTION, MIXELM=0) 
 = 0.1132    (WHEN MIN. R.F.=1)  AT K=   3, I=   2, J=  28
=======
 = 0.1869    (WHEN MIN. R.F.=1)  AT K=   3, I=   2, J=  31

 MAXIMUM STEPSIZE WHICH MEETS STABILITY CRITERION OF THE ADVECTION TERM
 (FOR PURE FINITE-DIFFERENCE OPTION, MIXELM=0) 
 = 0.1248    (WHEN MIN. R.F.=1)  AT K=   3, I=   2, J=  30
>>>>>>> Stashed changes


 TOTAL NUMBER OF POINT SOURCES/SINKS PRESENT IN THE FLOW MODEL =   240

 MAXIMUM STEPSIZE WHICH MEETS STABILITY CRITERION OF THE SINK & SOURCE TERM
 = 0.1000E+31(WHEN MIN. R.F.=1)  AT K=   0, I=   0, J=   0

 MAXIMUM STEPSIZE WHICH MEETS STABILITY CRITERION OF THE DISPERSION TERM
<<<<<<< Updated upstream
 = 0.6195E-02(WHEN MIN. R.F.=1)  AT K=   3, I=   2, J=  31
     1 CALLS TO GCG PACKAGE FOR TRANSPORT TIME STEP   2 IN FLOW TIME STEP  78 STRESS PERIOD   2
    15 TOTAL ITERATIONS
=======
 = 0.6697E-02(WHEN MIN. R.F.=1)  AT K=   3, I=   2, J=  30
     1 CALLS TO GCG PACKAGE FOR TRANSPORT TIME STEP   6 IN FLOW TIME STEP  75 STRESS PERIOD   2
    14 TOTAL ITERATIONS
>>>>>>> Stashed changes
 
 SOLVING FOR HEAD 
 FLOW MODEL IS TRANSIENT
 FLOW MODEL CONTAINS CONSTANT-HEAD CELLS


 MAXIMUM STEPSIZE DURING WHICH ANY PARTICLE CANNOT MOVE MORE THAN ONE CELL
<<<<<<< Updated upstream
 = 0.1632    (WHEN MIN. R.F.=1)  AT K=   3, I=   2, J=  29

 MAXIMUM STEPSIZE WHICH MEETS STABILITY CRITERION OF THE ADVECTION TERM
 (FOR PURE FINITE-DIFFERENCE OPTION, MIXELM=0) 
 = 0.1132    (WHEN MIN. R.F.=1)  AT K=   3, I=   2, J=  28
=======
 = 0.1869    (WHEN MIN. R.F.=1)  AT K=   3, I=   2, J=  31

 MAXIMUM STEPSIZE WHICH MEETS STABILITY CRITERION OF THE ADVECTION TERM
 (FOR PURE FINITE-DIFFERENCE OPTION, MIXELM=0) 
 = 0.1248    (WHEN MIN. R.F.=1)  AT K=   3, I=   2, J=  30
>>>>>>> Stashed changes


 TOTAL NUMBER OF POINT SOURCES/SINKS PRESENT IN THE FLOW MODEL =   240

 MAXIMUM STEPSIZE WHICH MEETS STABILITY CRITERION OF THE SINK & SOURCE TERM
 = 0.1000E+31(WHEN MIN. R.F.=1)  AT K=   0, I=   0, J=   0

 MAXIMUM STEPSIZE WHICH MEETS STABILITY CRITERION OF THE DISPERSION TERM
<<<<<<< Updated upstream
 = 0.6195E-02(WHEN MIN. R.F.=1)  AT K=   3, I=   2, J=  31
     1 CALLS TO GCG PACKAGE FOR TRANSPORT TIME STEP   3 IN FLOW TIME STEP  78 STRESS PERIOD   2
    13 TOTAL ITERATIONS
=======
 = 0.6697E-02(WHEN MIN. R.F.=1)  AT K=   3, I=   2, J=  30
     1 CALLS TO GCG PACKAGE FOR TRANSPORT TIME STEP   7 IN FLOW TIME STEP  75 STRESS PERIOD   2
    14 TOTAL ITERATIONS
>>>>>>> Stashed changes
 
 SOLVING FOR HEAD 
 FLOW MODEL IS TRANSIENT
 FLOW MODEL CONTAINS CONSTANT-HEAD CELLS


 MAXIMUM STEPSIZE DURING WHICH ANY PARTICLE CANNOT MOVE MORE THAN ONE CELL
<<<<<<< Updated upstream
 = 0.1632    (WHEN MIN. R.F.=1)  AT K=   3, I=   2, J=  29

 MAXIMUM STEPSIZE WHICH MEETS STABILITY CRITERION OF THE ADVECTION TERM
 (FOR PURE FINITE-DIFFERENCE OPTION, MIXELM=0) 
 = 0.1132    (WHEN MIN. R.F.=1)  AT K=   3, I=   2, J=  28
=======
 = 0.1869    (WHEN MIN. R.F.=1)  AT K=   3, I=   2, J=  31

 MAXIMUM STEPSIZE WHICH MEETS STABILITY CRITERION OF THE ADVECTION TERM
 (FOR PURE FINITE-DIFFERENCE OPTION, MIXELM=0) 
 = 0.1248    (WHEN MIN. R.F.=1)  AT K=   3, I=   2, J=  30
>>>>>>> Stashed changes


 TOTAL NUMBER OF POINT SOURCES/SINKS PRESENT IN THE FLOW MODEL =   240

 MAXIMUM STEPSIZE WHICH MEETS STABILITY CRITERION OF THE SINK & SOURCE TERM
 = 0.1000E+31(WHEN MIN. R.F.=1)  AT K=   0, I=   0, J=   0

 MAXIMUM STEPSIZE WHICH MEETS STABILITY CRITERION OF THE DISPERSION TERM
<<<<<<< Updated upstream
 = 0.6195E-02(WHEN MIN. R.F.=1)  AT K=   3, I=   2, J=  31
     1 CALLS TO GCG PACKAGE FOR TRANSPORT TIME STEP   4 IN FLOW TIME STEP  78 STRESS PERIOD   2
    13 TOTAL ITERATIONS
=======
 = 0.6697E-02(WHEN MIN. R.F.=1)  AT K=   3, I=   2, J=  30
     1 CALLS TO GCG PACKAGE FOR TRANSPORT TIME STEP   8 IN FLOW TIME STEP  75 STRESS PERIOD   2
     5 TOTAL ITERATIONS
  MAXIMUM CONCENTRATION CHANGES FOR EACH ITERATION:
  MAX. CHANGE LAYER,ROW,COL MAX. CHANGE LAYER,ROW,COL MAX. CHANGE LAYER,ROW,COL MAX. CHANGE LAYER,ROW,COL MAX. CHANGE LAYER,ROW,COL
 ------------------------------------------------------------------------------------------------------------------------------------
   0.1112E-03 ( 17,  1, 53)  0.3090E-05 (  5,  2, 63)  0.5520E-06 (  4,  2, 54)  0.1596E-06 (  3,  2, 44)  0.5622E-07 (  4,  1, 31)
 UBDSV1 SAVING "         STORAGE" ON UNIT  53 AT TIME STEP 75, STRESS PERIOD   2
 UBDSV2 SAVING "   CONSTANT HEAD" ON UNIT  53 AT TIME STEP 75, STRESS PERIOD   2
 UBDSV1 SAVING "FLOW RIGHT FACE " ON UNIT  53 AT TIME STEP 75, STRESS PERIOD   2
 UBDSV1 SAVING "FLOW FRONT FACE " ON UNIT  53 AT TIME STEP 75, STRESS PERIOD   2
 UBDSV1 SAVING "FLOW LOWER FACE " ON UNIT  53 AT TIME STEP 75, STRESS PERIOD   2
 UBDSV1 SAVING "            DCDT" ON UNIT  53 AT TIME STEP 75, STRESS PERIOD   2

 HEAD WILL BE SAVED ON UNIT   51 AT END OF TIME STEP  75, STRESS PERIOD    2


                                          ================================================
                                                         FROM TIME =   76.000     TO    77.000    

>>>>>>> Stashed changes
 
 SOLVING FOR HEAD 
 FLOW MODEL IS TRANSIENT
 FLOW MODEL CONTAINS CONSTANT-HEAD CELLS


 MAXIMUM STEPSIZE DURING WHICH ANY PARTICLE CANNOT MOVE MORE THAN ONE CELL
<<<<<<< Updated upstream
 = 0.1632    (WHEN MIN. R.F.=1)  AT K=   3, I=   2, J=  29

 MAXIMUM STEPSIZE WHICH MEETS STABILITY CRITERION OF THE ADVECTION TERM
 (FOR PURE FINITE-DIFFERENCE OPTION, MIXELM=0) 
 = 0.1132    (WHEN MIN. R.F.=1)  AT K=   3, I=   2, J=  28
=======
 = 0.1869    (WHEN MIN. R.F.=1)  AT K=   3, I=   2, J=  31

 MAXIMUM STEPSIZE WHICH MEETS STABILITY CRITERION OF THE ADVECTION TERM
 (FOR PURE FINITE-DIFFERENCE OPTION, MIXELM=0) 
 = 0.1248    (WHEN MIN. R.F.=1)  AT K=   3, I=   2, J=  30
>>>>>>> Stashed changes


 TOTAL NUMBER OF POINT SOURCES/SINKS PRESENT IN THE FLOW MODEL =   240

 MAXIMUM STEPSIZE WHICH MEETS STABILITY CRITERION OF THE SINK & SOURCE TERM
 = 0.1000E+31(WHEN MIN. R.F.=1)  AT K=   0, I=   0, J=   0

 MAXIMUM STEPSIZE WHICH MEETS STABILITY CRITERION OF THE DISPERSION TERM
<<<<<<< Updated upstream
 = 0.6195E-02(WHEN MIN. R.F.=1)  AT K=   3, I=   2, J=  31
     1 CALLS TO GCG PACKAGE FOR TRANSPORT TIME STEP   5 IN FLOW TIME STEP  78 STRESS PERIOD   2
    15 TOTAL ITERATIONS
=======
 = 0.6697E-02(WHEN MIN. R.F.=1)  AT K=   3, I=   2, J=  30


     1 CALLS TO GCG PACKAGE FOR TRANSPORT TIME STEP   1 IN FLOW TIME STEP  76 STRESS PERIOD   2
    13 TOTAL ITERATIONS

 OUTPUT CONTROL FOR STRESS PERIOD    2   TIME STEP  76
    SAVE HEAD FOR ALL LAYERS
    SAVE BUDGET
>>>>>>> Stashed changes
 
 SOLVING FOR HEAD 
 FLOW MODEL IS TRANSIENT
 FLOW MODEL CONTAINS CONSTANT-HEAD CELLS


 MAXIMUM STEPSIZE DURING WHICH ANY PARTICLE CANNOT MOVE MORE THAN ONE CELL
<<<<<<< Updated upstream
 = 0.1632    (WHEN MIN. R.F.=1)  AT K=   3, I=   2, J=  29

 MAXIMUM STEPSIZE WHICH MEETS STABILITY CRITERION OF THE ADVECTION TERM
 (FOR PURE FINITE-DIFFERENCE OPTION, MIXELM=0) 
 = 0.1132    (WHEN MIN. R.F.=1)  AT K=   3, I=   2, J=  28
=======
 = 0.1869    (WHEN MIN. R.F.=1)  AT K=   3, I=   2, J=  31

 MAXIMUM STEPSIZE WHICH MEETS STABILITY CRITERION OF THE ADVECTION TERM
 (FOR PURE FINITE-DIFFERENCE OPTION, MIXELM=0) 
 = 0.1248    (WHEN MIN. R.F.=1)  AT K=   3, I=   2, J=  30
>>>>>>> Stashed changes


 TOTAL NUMBER OF POINT SOURCES/SINKS PRESENT IN THE FLOW MODEL =   240

 MAXIMUM STEPSIZE WHICH MEETS STABILITY CRITERION OF THE SINK & SOURCE TERM
 = 0.1000E+31(WHEN MIN. R.F.=1)  AT K=   0, I=   0, J=   0

 MAXIMUM STEPSIZE WHICH MEETS STABILITY CRITERION OF THE DISPERSION TERM
<<<<<<< Updated upstream
 = 0.6195E-02(WHEN MIN. R.F.=1)  AT K=   3, I=   2, J=  31
     1 CALLS TO GCG PACKAGE FOR TRANSPORT TIME STEP   6 IN FLOW TIME STEP  78 STRESS PERIOD   2
    13 TOTAL ITERATIONS
=======
 = 0.6697E-02(WHEN MIN. R.F.=1)  AT K=   3, I=   2, J=  30
     1 CALLS TO GCG PACKAGE FOR TRANSPORT TIME STEP   2 IN FLOW TIME STEP  76 STRESS PERIOD   2
    15 TOTAL ITERATIONS
>>>>>>> Stashed changes
 
 SOLVING FOR HEAD 
 FLOW MODEL IS TRANSIENT
 FLOW MODEL CONTAINS CONSTANT-HEAD CELLS


 MAXIMUM STEPSIZE DURING WHICH ANY PARTICLE CANNOT MOVE MORE THAN ONE CELL
<<<<<<< Updated upstream
 = 0.1632    (WHEN MIN. R.F.=1)  AT K=   3, I=   2, J=  29

 MAXIMUM STEPSIZE WHICH MEETS STABILITY CRITERION OF THE ADVECTION TERM
 (FOR PURE FINITE-DIFFERENCE OPTION, MIXELM=0) 
 = 0.1132    (WHEN MIN. R.F.=1)  AT K=   3, I=   2, J=  28
=======
 = 0.1869    (WHEN MIN. R.F.=1)  AT K=   3, I=   2, J=  31

 MAXIMUM STEPSIZE WHICH MEETS STABILITY CRITERION OF THE ADVECTION TERM
 (FOR PURE FINITE-DIFFERENCE OPTION, MIXELM=0) 
 = 0.1248    (WHEN MIN. R.F.=1)  AT K=   3, I=   2, J=  30
>>>>>>> Stashed changes


 TOTAL NUMBER OF POINT SOURCES/SINKS PRESENT IN THE FLOW MODEL =   240

 MAXIMUM STEPSIZE WHICH MEETS STABILITY CRITERION OF THE SINK & SOURCE TERM
 = 0.1000E+31(WHEN MIN. R.F.=1)  AT K=   0, I=   0, J=   0

 MAXIMUM STEPSIZE WHICH MEETS STABILITY CRITERION OF THE DISPERSION TERM
<<<<<<< Updated upstream
 = 0.6195E-02(WHEN MIN. R.F.=1)  AT K=   3, I=   2, J=  31
     1 CALLS TO GCG PACKAGE FOR TRANSPORT TIME STEP   7 IN FLOW TIME STEP  78 STRESS PERIOD   2
    13 TOTAL ITERATIONS
=======
 = 0.6697E-02(WHEN MIN. R.F.=1)  AT K=   3, I=   2, J=  30
     1 CALLS TO GCG PACKAGE FOR TRANSPORT TIME STEP   3 IN FLOW TIME STEP  76 STRESS PERIOD   2
    14 TOTAL ITERATIONS
>>>>>>> Stashed changes
 
 SOLVING FOR HEAD 
 FLOW MODEL IS TRANSIENT
 FLOW MODEL CONTAINS CONSTANT-HEAD CELLS


 MAXIMUM STEPSIZE DURING WHICH ANY PARTICLE CANNOT MOVE MORE THAN ONE CELL
<<<<<<< Updated upstream
 = 0.1632    (WHEN MIN. R.F.=1)  AT K=   3, I=   2, J=  29

 MAXIMUM STEPSIZE WHICH MEETS STABILITY CRITERION OF THE ADVECTION TERM
 (FOR PURE FINITE-DIFFERENCE OPTION, MIXELM=0) 
 = 0.1132    (WHEN MIN. R.F.=1)  AT K=   3, I=   2, J=  28
=======
 = 0.1869    (WHEN MIN. R.F.=1)  AT K=   3, I=   2, J=  31

 MAXIMUM STEPSIZE WHICH MEETS STABILITY CRITERION OF THE ADVECTION TERM
 (FOR PURE FINITE-DIFFERENCE OPTION, MIXELM=0) 
 = 0.1248    (WHEN MIN. R.F.=1)  AT K=   3, I=   2, J=  30
>>>>>>> Stashed changes


 TOTAL NUMBER OF POINT SOURCES/SINKS PRESENT IN THE FLOW MODEL =   240

 MAXIMUM STEPSIZE WHICH MEETS STABILITY CRITERION OF THE SINK & SOURCE TERM
 = 0.1000E+31(WHEN MIN. R.F.=1)  AT K=   0, I=   0, J=   0

 MAXIMUM STEPSIZE WHICH MEETS STABILITY CRITERION OF THE DISPERSION TERM
<<<<<<< Updated upstream
 = 0.6195E-02(WHEN MIN. R.F.=1)  AT K=   3, I=   2, J=  31
     1 CALLS TO GCG PACKAGE FOR TRANSPORT TIME STEP   8 IN FLOW TIME STEP  78 STRESS PERIOD   2
    13 TOTAL ITERATIONS
=======
 = 0.6697E-02(WHEN MIN. R.F.=1)  AT K=   3, I=   2, J=  30
     1 CALLS TO GCG PACKAGE FOR TRANSPORT TIME STEP   4 IN FLOW TIME STEP  76 STRESS PERIOD   2
    14 TOTAL ITERATIONS
>>>>>>> Stashed changes
 
 SOLVING FOR HEAD 
 FLOW MODEL IS TRANSIENT
 FLOW MODEL CONTAINS CONSTANT-HEAD CELLS


 MAXIMUM STEPSIZE DURING WHICH ANY PARTICLE CANNOT MOVE MORE THAN ONE CELL
<<<<<<< Updated upstream
 = 0.1632    (WHEN MIN. R.F.=1)  AT K=   3, I=   2, J=  29

 MAXIMUM STEPSIZE WHICH MEETS STABILITY CRITERION OF THE ADVECTION TERM
 (FOR PURE FINITE-DIFFERENCE OPTION, MIXELM=0) 
 = 0.1132    (WHEN MIN. R.F.=1)  AT K=   3, I=   2, J=  28
=======
 = 0.1869    (WHEN MIN. R.F.=1)  AT K=   3, I=   2, J=  31

 MAXIMUM STEPSIZE WHICH MEETS STABILITY CRITERION OF THE ADVECTION TERM
 (FOR PURE FINITE-DIFFERENCE OPTION, MIXELM=0) 
 = 0.1248    (WHEN MIN. R.F.=1)  AT K=   3, I=   2, J=  30
>>>>>>> Stashed changes


 TOTAL NUMBER OF POINT SOURCES/SINKS PRESENT IN THE FLOW MODEL =   240

 MAXIMUM STEPSIZE WHICH MEETS STABILITY CRITERION OF THE SINK & SOURCE TERM
 = 0.1000E+31(WHEN MIN. R.F.=1)  AT K=   0, I=   0, J=   0

 MAXIMUM STEPSIZE WHICH MEETS STABILITY CRITERION OF THE DISPERSION TERM
<<<<<<< Updated upstream
 = 0.6195E-02(WHEN MIN. R.F.=1)  AT K=   3, I=   2, J=  31
     1 CALLS TO GCG PACKAGE FOR TRANSPORT TIME STEP   9 IN FLOW TIME STEP  78 STRESS PERIOD   2
     5 TOTAL ITERATIONS
  MAXIMUM CONCENTRATION CHANGES FOR EACH ITERATION:
  MAX. CHANGE LAYER,ROW,COL MAX. CHANGE LAYER,ROW,COL MAX. CHANGE LAYER,ROW,COL MAX. CHANGE LAYER,ROW,COL MAX. CHANGE LAYER,ROW,COL
 ------------------------------------------------------------------------------------------------------------------------------------
   0.1339E-03 ( 14,  3, 52)  0.4683E-05 (  5,  2, 64)  0.8562E-06 (  6,  1, 56)  0.1129E-06 (  4,  2, 46)  0.5380E-07 (  3,  3, 32)


                                          ================================================
                                                         FROM TIME =   79.000     TO    80.000    

=======
 = 0.6697E-02(WHEN MIN. R.F.=1)  AT K=   3, I=   2, J=  30
     1 CALLS TO GCG PACKAGE FOR TRANSPORT TIME STEP   5 IN FLOW TIME STEP  76 STRESS PERIOD   2
    14 TOTAL ITERATIONS
>>>>>>> Stashed changes
 
 SOLVING FOR HEAD 
 FLOW MODEL IS TRANSIENT
 FLOW MODEL CONTAINS CONSTANT-HEAD CELLS


 MAXIMUM STEPSIZE DURING WHICH ANY PARTICLE CANNOT MOVE MORE THAN ONE CELL
<<<<<<< Updated upstream
 = 0.1632    (WHEN MIN. R.F.=1)  AT K=   3, I=   2, J=  29

 MAXIMUM STEPSIZE WHICH MEETS STABILITY CRITERION OF THE ADVECTION TERM
 (FOR PURE FINITE-DIFFERENCE OPTION, MIXELM=0) 
 = 0.1132    (WHEN MIN. R.F.=1)  AT K=   3, I=   2, J=  28
=======
 = 0.1869    (WHEN MIN. R.F.=1)  AT K=   3, I=   2, J=  31

 MAXIMUM STEPSIZE WHICH MEETS STABILITY CRITERION OF THE ADVECTION TERM
 (FOR PURE FINITE-DIFFERENCE OPTION, MIXELM=0) 
 = 0.1248    (WHEN MIN. R.F.=1)  AT K=   3, I=   2, J=  30
>>>>>>> Stashed changes


 TOTAL NUMBER OF POINT SOURCES/SINKS PRESENT IN THE FLOW MODEL =   240

 MAXIMUM STEPSIZE WHICH MEETS STABILITY CRITERION OF THE SINK & SOURCE TERM
 = 0.1000E+31(WHEN MIN. R.F.=1)  AT K=   0, I=   0, J=   0

 MAXIMUM STEPSIZE WHICH MEETS STABILITY CRITERION OF THE DISPERSION TERM
<<<<<<< Updated upstream
 = 0.6195E-02(WHEN MIN. R.F.=1)  AT K=   3, I=   2, J=  31


     1 CALLS TO GCG PACKAGE FOR TRANSPORT TIME STEP   1 IN FLOW TIME STEP  79 STRESS PERIOD   2
    13 TOTAL ITERATIONS

 NO OUTPUT CONTROL FOR STRESS PERIOD    2   TIME STEP  79
=======
 = 0.6697E-02(WHEN MIN. R.F.=1)  AT K=   3, I=   2, J=  30
     1 CALLS TO GCG PACKAGE FOR TRANSPORT TIME STEP   6 IN FLOW TIME STEP  76 STRESS PERIOD   2
    14 TOTAL ITERATIONS
>>>>>>> Stashed changes
 
 SOLVING FOR HEAD 
 FLOW MODEL IS TRANSIENT
 FLOW MODEL CONTAINS CONSTANT-HEAD CELLS


 MAXIMUM STEPSIZE DURING WHICH ANY PARTICLE CANNOT MOVE MORE THAN ONE CELL
<<<<<<< Updated upstream
 = 0.1632    (WHEN MIN. R.F.=1)  AT K=   3, I=   2, J=  29

 MAXIMUM STEPSIZE WHICH MEETS STABILITY CRITERION OF THE ADVECTION TERM
 (FOR PURE FINITE-DIFFERENCE OPTION, MIXELM=0) 
 = 0.1132    (WHEN MIN. R.F.=1)  AT K=   3, I=   2, J=  28
=======
 = 0.1869    (WHEN MIN. R.F.=1)  AT K=   3, I=   2, J=  31

 MAXIMUM STEPSIZE WHICH MEETS STABILITY CRITERION OF THE ADVECTION TERM
 (FOR PURE FINITE-DIFFERENCE OPTION, MIXELM=0) 
 = 0.1248    (WHEN MIN. R.F.=1)  AT K=   3, I=   2, J=  30
>>>>>>> Stashed changes


 TOTAL NUMBER OF POINT SOURCES/SINKS PRESENT IN THE FLOW MODEL =   240

 MAXIMUM STEPSIZE WHICH MEETS STABILITY CRITERION OF THE SINK & SOURCE TERM
 = 0.1000E+31(WHEN MIN. R.F.=1)  AT K=   0, I=   0, J=   0

 MAXIMUM STEPSIZE WHICH MEETS STABILITY CRITERION OF THE DISPERSION TERM
<<<<<<< Updated upstream
 = 0.6195E-02(WHEN MIN. R.F.=1)  AT K=   3, I=   2, J=  31
     1 CALLS TO GCG PACKAGE FOR TRANSPORT TIME STEP   2 IN FLOW TIME STEP  79 STRESS PERIOD   2
    13 TOTAL ITERATIONS
=======
 = 0.6697E-02(WHEN MIN. R.F.=1)  AT K=   3, I=   2, J=  30
     1 CALLS TO GCG PACKAGE FOR TRANSPORT TIME STEP   7 IN FLOW TIME STEP  76 STRESS PERIOD   2
    14 TOTAL ITERATIONS
>>>>>>> Stashed changes
 
 SOLVING FOR HEAD 
 FLOW MODEL IS TRANSIENT
 FLOW MODEL CONTAINS CONSTANT-HEAD CELLS


 MAXIMUM STEPSIZE DURING WHICH ANY PARTICLE CANNOT MOVE MORE THAN ONE CELL
<<<<<<< Updated upstream
 = 0.1632    (WHEN MIN. R.F.=1)  AT K=   3, I=   2, J=  29

 MAXIMUM STEPSIZE WHICH MEETS STABILITY CRITERION OF THE ADVECTION TERM
 (FOR PURE FINITE-DIFFERENCE OPTION, MIXELM=0) 
 = 0.1132    (WHEN MIN. R.F.=1)  AT K=   3, I=   2, J=  28
=======
 = 0.1869    (WHEN MIN. R.F.=1)  AT K=   3, I=   2, J=  31

 MAXIMUM STEPSIZE WHICH MEETS STABILITY CRITERION OF THE ADVECTION TERM
 (FOR PURE FINITE-DIFFERENCE OPTION, MIXELM=0) 
 = 0.1248    (WHEN MIN. R.F.=1)  AT K=   3, I=   2, J=  30
>>>>>>> Stashed changes


 TOTAL NUMBER OF POINT SOURCES/SINKS PRESENT IN THE FLOW MODEL =   240

 MAXIMUM STEPSIZE WHICH MEETS STABILITY CRITERION OF THE SINK & SOURCE TERM
 = 0.1000E+31(WHEN MIN. R.F.=1)  AT K=   0, I=   0, J=   0

 MAXIMUM STEPSIZE WHICH MEETS STABILITY CRITERION OF THE DISPERSION TERM
<<<<<<< Updated upstream
 = 0.6195E-02(WHEN MIN. R.F.=1)  AT K=   3, I=   2, J=  31
     1 CALLS TO GCG PACKAGE FOR TRANSPORT TIME STEP   3 IN FLOW TIME STEP  79 STRESS PERIOD   2
    13 TOTAL ITERATIONS
=======
 = 0.6696E-02(WHEN MIN. R.F.=1)  AT K=   3, I=   2, J=  30
     1 CALLS TO GCG PACKAGE FOR TRANSPORT TIME STEP   8 IN FLOW TIME STEP  76 STRESS PERIOD   2
     5 TOTAL ITERATIONS
  MAXIMUM CONCENTRATION CHANGES FOR EACH ITERATION:
  MAX. CHANGE LAYER,ROW,COL MAX. CHANGE LAYER,ROW,COL MAX. CHANGE LAYER,ROW,COL MAX. CHANGE LAYER,ROW,COL MAX. CHANGE LAYER,ROW,COL
 ------------------------------------------------------------------------------------------------------------------------------------
   0.1033E-03 ( 17,  1, 53)  0.3011E-05 (  5,  2, 63)  0.5349E-06 (  4,  2, 54)  0.1558E-06 (  3,  2, 43)  0.5407E-07 (  4,  3, 27)
 UBDSV1 SAVING "         STORAGE" ON UNIT  53 AT TIME STEP 76, STRESS PERIOD   2
 UBDSV2 SAVING "   CONSTANT HEAD" ON UNIT  53 AT TIME STEP 76, STRESS PERIOD   2
 UBDSV1 SAVING "FLOW RIGHT FACE " ON UNIT  53 AT TIME STEP 76, STRESS PERIOD   2
 UBDSV1 SAVING "FLOW FRONT FACE " ON UNIT  53 AT TIME STEP 76, STRESS PERIOD   2
 UBDSV1 SAVING "FLOW LOWER FACE " ON UNIT  53 AT TIME STEP 76, STRESS PERIOD   2
 UBDSV1 SAVING "            DCDT" ON UNIT  53 AT TIME STEP 76, STRESS PERIOD   2

 HEAD WILL BE SAVED ON UNIT   51 AT END OF TIME STEP  76, STRESS PERIOD    2


                                          ================================================
                                                         FROM TIME =   77.000     TO    78.000    

>>>>>>> Stashed changes
 
 SOLVING FOR HEAD 
 FLOW MODEL IS TRANSIENT
 FLOW MODEL CONTAINS CONSTANT-HEAD CELLS


 MAXIMUM STEPSIZE DURING WHICH ANY PARTICLE CANNOT MOVE MORE THAN ONE CELL
<<<<<<< Updated upstream
 = 0.1632    (WHEN MIN. R.F.=1)  AT K=   3, I=   2, J=  29

 MAXIMUM STEPSIZE WHICH MEETS STABILITY CRITERION OF THE ADVECTION TERM
 (FOR PURE FINITE-DIFFERENCE OPTION, MIXELM=0) 
 = 0.1132    (WHEN MIN. R.F.=1)  AT K=   3, I=   2, J=  28
=======
 = 0.1869    (WHEN MIN. R.F.=1)  AT K=   3, I=   2, J=  31

 MAXIMUM STEPSIZE WHICH MEETS STABILITY CRITERION OF THE ADVECTION TERM
 (FOR PURE FINITE-DIFFERENCE OPTION, MIXELM=0) 
 = 0.1248    (WHEN MIN. R.F.=1)  AT K=   3, I=   2, J=  30
>>>>>>> Stashed changes


 TOTAL NUMBER OF POINT SOURCES/SINKS PRESENT IN THE FLOW MODEL =   240

 MAXIMUM STEPSIZE WHICH MEETS STABILITY CRITERION OF THE SINK & SOURCE TERM
 = 0.1000E+31(WHEN MIN. R.F.=1)  AT K=   0, I=   0, J=   0

 MAXIMUM STEPSIZE WHICH MEETS STABILITY CRITERION OF THE DISPERSION TERM
<<<<<<< Updated upstream
 = 0.6195E-02(WHEN MIN. R.F.=1)  AT K=   3, I=   2, J=  31
     1 CALLS TO GCG PACKAGE FOR TRANSPORT TIME STEP   4 IN FLOW TIME STEP  79 STRESS PERIOD   2
    13 TOTAL ITERATIONS
=======
 = 0.6696E-02(WHEN MIN. R.F.=1)  AT K=   3, I=   2, J=  30


     1 CALLS TO GCG PACKAGE FOR TRANSPORT TIME STEP   1 IN FLOW TIME STEP  77 STRESS PERIOD   2
    15 TOTAL ITERATIONS

 OUTPUT CONTROL FOR STRESS PERIOD    2   TIME STEP  77
    SAVE HEAD FOR ALL LAYERS
    SAVE BUDGET
>>>>>>> Stashed changes
 
 SOLVING FOR HEAD 
 FLOW MODEL IS TRANSIENT
 FLOW MODEL CONTAINS CONSTANT-HEAD CELLS


 MAXIMUM STEPSIZE DURING WHICH ANY PARTICLE CANNOT MOVE MORE THAN ONE CELL
<<<<<<< Updated upstream
 = 0.1632    (WHEN MIN. R.F.=1)  AT K=   3, I=   2, J=  29

 MAXIMUM STEPSIZE WHICH MEETS STABILITY CRITERION OF THE ADVECTION TERM
 (FOR PURE FINITE-DIFFERENCE OPTION, MIXELM=0) 
 = 0.1132    (WHEN MIN. R.F.=1)  AT K=   3, I=   2, J=  28
=======
 = 0.1869    (WHEN MIN. R.F.=1)  AT K=   3, I=   2, J=  31

 MAXIMUM STEPSIZE WHICH MEETS STABILITY CRITERION OF THE ADVECTION TERM
 (FOR PURE FINITE-DIFFERENCE OPTION, MIXELM=0) 
 = 0.1248    (WHEN MIN. R.F.=1)  AT K=   3, I=   2, J=  30
>>>>>>> Stashed changes


 TOTAL NUMBER OF POINT SOURCES/SINKS PRESENT IN THE FLOW MODEL =   240

 MAXIMUM STEPSIZE WHICH MEETS STABILITY CRITERION OF THE SINK & SOURCE TERM
 = 0.1000E+31(WHEN MIN. R.F.=1)  AT K=   0, I=   0, J=   0

 MAXIMUM STEPSIZE WHICH MEETS STABILITY CRITERION OF THE DISPERSION TERM
<<<<<<< Updated upstream
 = 0.6195E-02(WHEN MIN. R.F.=1)  AT K=   3, I=   2, J=  31
     1 CALLS TO GCG PACKAGE FOR TRANSPORT TIME STEP   5 IN FLOW TIME STEP  79 STRESS PERIOD   2
    13 TOTAL ITERATIONS
=======
 = 0.6696E-02(WHEN MIN. R.F.=1)  AT K=   3, I=   2, J=  30
     1 CALLS TO GCG PACKAGE FOR TRANSPORT TIME STEP   2 IN FLOW TIME STEP  77 STRESS PERIOD   2
    14 TOTAL ITERATIONS
>>>>>>> Stashed changes
 
 SOLVING FOR HEAD 
 FLOW MODEL IS TRANSIENT
 FLOW MODEL CONTAINS CONSTANT-HEAD CELLS


 MAXIMUM STEPSIZE DURING WHICH ANY PARTICLE CANNOT MOVE MORE THAN ONE CELL
<<<<<<< Updated upstream
 = 0.1632    (WHEN MIN. R.F.=1)  AT K=   3, I=   2, J=  29

 MAXIMUM STEPSIZE WHICH MEETS STABILITY CRITERION OF THE ADVECTION TERM
 (FOR PURE FINITE-DIFFERENCE OPTION, MIXELM=0) 
 = 0.1132    (WHEN MIN. R.F.=1)  AT K=   3, I=   2, J=  28
=======
 = 0.1869    (WHEN MIN. R.F.=1)  AT K=   3, I=   2, J=  31

 MAXIMUM STEPSIZE WHICH MEETS STABILITY CRITERION OF THE ADVECTION TERM
 (FOR PURE FINITE-DIFFERENCE OPTION, MIXELM=0) 
 = 0.1248    (WHEN MIN. R.F.=1)  AT K=   3, I=   2, J=  30
>>>>>>> Stashed changes


 TOTAL NUMBER OF POINT SOURCES/SINKS PRESENT IN THE FLOW MODEL =   240

 MAXIMUM STEPSIZE WHICH MEETS STABILITY CRITERION OF THE SINK & SOURCE TERM
 = 0.1000E+31(WHEN MIN. R.F.=1)  AT K=   0, I=   0, J=   0

 MAXIMUM STEPSIZE WHICH MEETS STABILITY CRITERION OF THE DISPERSION TERM
<<<<<<< Updated upstream
 = 0.6195E-02(WHEN MIN. R.F.=1)  AT K=   3, I=   2, J=  31
     1 CALLS TO GCG PACKAGE FOR TRANSPORT TIME STEP   6 IN FLOW TIME STEP  79 STRESS PERIOD   2
    13 TOTAL ITERATIONS
=======
 = 0.6696E-02(WHEN MIN. R.F.=1)  AT K=   3, I=   2, J=  30
     1 CALLS TO GCG PACKAGE FOR TRANSPORT TIME STEP   3 IN FLOW TIME STEP  77 STRESS PERIOD   2
    14 TOTAL ITERATIONS
>>>>>>> Stashed changes
 
 SOLVING FOR HEAD 
 FLOW MODEL IS TRANSIENT
 FLOW MODEL CONTAINS CONSTANT-HEAD CELLS


 MAXIMUM STEPSIZE DURING WHICH ANY PARTICLE CANNOT MOVE MORE THAN ONE CELL
<<<<<<< Updated upstream
 = 0.1632    (WHEN MIN. R.F.=1)  AT K=   3, I=   2, J=  29

 MAXIMUM STEPSIZE WHICH MEETS STABILITY CRITERION OF THE ADVECTION TERM
 (FOR PURE FINITE-DIFFERENCE OPTION, MIXELM=0) 
 = 0.1132    (WHEN MIN. R.F.=1)  AT K=   3, I=   2, J=  28
=======
 = 0.1869    (WHEN MIN. R.F.=1)  AT K=   3, I=   2, J=  31

 MAXIMUM STEPSIZE WHICH MEETS STABILITY CRITERION OF THE ADVECTION TERM
 (FOR PURE FINITE-DIFFERENCE OPTION, MIXELM=0) 
 = 0.1248    (WHEN MIN. R.F.=1)  AT K=   3, I=   2, J=  30
>>>>>>> Stashed changes


 TOTAL NUMBER OF POINT SOURCES/SINKS PRESENT IN THE FLOW MODEL =   240

 MAXIMUM STEPSIZE WHICH MEETS STABILITY CRITERION OF THE SINK & SOURCE TERM
 = 0.1000E+31(WHEN MIN. R.F.=1)  AT K=   0, I=   0, J=   0

 MAXIMUM STEPSIZE WHICH MEETS STABILITY CRITERION OF THE DISPERSION TERM
<<<<<<< Updated upstream
 = 0.6195E-02(WHEN MIN. R.F.=1)  AT K=   3, I=   2, J=  31
     1 CALLS TO GCG PACKAGE FOR TRANSPORT TIME STEP   7 IN FLOW TIME STEP  79 STRESS PERIOD   2
    13 TOTAL ITERATIONS
=======
 = 0.6696E-02(WHEN MIN. R.F.=1)  AT K=   3, I=   2, J=  30
     1 CALLS TO GCG PACKAGE FOR TRANSPORT TIME STEP   4 IN FLOW TIME STEP  77 STRESS PERIOD   2
    14 TOTAL ITERATIONS
>>>>>>> Stashed changes
 
 SOLVING FOR HEAD 
 FLOW MODEL IS TRANSIENT
 FLOW MODEL CONTAINS CONSTANT-HEAD CELLS


 MAXIMUM STEPSIZE DURING WHICH ANY PARTICLE CANNOT MOVE MORE THAN ONE CELL
<<<<<<< Updated upstream
 = 0.1632    (WHEN MIN. R.F.=1)  AT K=   3, I=   2, J=  29

 MAXIMUM STEPSIZE WHICH MEETS STABILITY CRITERION OF THE ADVECTION TERM
 (FOR PURE FINITE-DIFFERENCE OPTION, MIXELM=0) 
 = 0.1132    (WHEN MIN. R.F.=1)  AT K=   3, I=   2, J=  28
=======
 = 0.1869    (WHEN MIN. R.F.=1)  AT K=   3, I=   2, J=  31

 MAXIMUM STEPSIZE WHICH MEETS STABILITY CRITERION OF THE ADVECTION TERM
 (FOR PURE FINITE-DIFFERENCE OPTION, MIXELM=0) 
 = 0.1248    (WHEN MIN. R.F.=1)  AT K=   3, I=   2, J=  30
>>>>>>> Stashed changes


 TOTAL NUMBER OF POINT SOURCES/SINKS PRESENT IN THE FLOW MODEL =   240

 MAXIMUM STEPSIZE WHICH MEETS STABILITY CRITERION OF THE SINK & SOURCE TERM
 = 0.1000E+31(WHEN MIN. R.F.=1)  AT K=   0, I=   0, J=   0

 MAXIMUM STEPSIZE WHICH MEETS STABILITY CRITERION OF THE DISPERSION TERM
<<<<<<< Updated upstream
 = 0.6195E-02(WHEN MIN. R.F.=1)  AT K=   3, I=   2, J=  31
     1 CALLS TO GCG PACKAGE FOR TRANSPORT TIME STEP   8 IN FLOW TIME STEP  79 STRESS PERIOD   2
=======
 = 0.6696E-02(WHEN MIN. R.F.=1)  AT K=   3, I=   2, J=  30
     1 CALLS TO GCG PACKAGE FOR TRANSPORT TIME STEP   5 IN FLOW TIME STEP  77 STRESS PERIOD   2
>>>>>>> Stashed changes
    13 TOTAL ITERATIONS
 
 SOLVING FOR HEAD 
 FLOW MODEL IS TRANSIENT
 FLOW MODEL CONTAINS CONSTANT-HEAD CELLS


 MAXIMUM STEPSIZE DURING WHICH ANY PARTICLE CANNOT MOVE MORE THAN ONE CELL
<<<<<<< Updated upstream
 = 0.1632    (WHEN MIN. R.F.=1)  AT K=   3, I=   2, J=  29

 MAXIMUM STEPSIZE WHICH MEETS STABILITY CRITERION OF THE ADVECTION TERM
 (FOR PURE FINITE-DIFFERENCE OPTION, MIXELM=0) 
 = 0.1132    (WHEN MIN. R.F.=1)  AT K=   3, I=   2, J=  28
=======
 = 0.1869    (WHEN MIN. R.F.=1)  AT K=   3, I=   2, J=  31

 MAXIMUM STEPSIZE WHICH MEETS STABILITY CRITERION OF THE ADVECTION TERM
 (FOR PURE FINITE-DIFFERENCE OPTION, MIXELM=0) 
 = 0.1248    (WHEN MIN. R.F.=1)  AT K=   3, I=   2, J=  30
>>>>>>> Stashed changes


 TOTAL NUMBER OF POINT SOURCES/SINKS PRESENT IN THE FLOW MODEL =   240

 MAXIMUM STEPSIZE WHICH MEETS STABILITY CRITERION OF THE SINK & SOURCE TERM
 = 0.1000E+31(WHEN MIN. R.F.=1)  AT K=   0, I=   0, J=   0

 MAXIMUM STEPSIZE WHICH MEETS STABILITY CRITERION OF THE DISPERSION TERM
<<<<<<< Updated upstream
 = 0.6195E-02(WHEN MIN. R.F.=1)  AT K=   3, I=   2, J=  31
     1 CALLS TO GCG PACKAGE FOR TRANSPORT TIME STEP   9 IN FLOW TIME STEP  79 STRESS PERIOD   2
     5 TOTAL ITERATIONS
  MAXIMUM CONCENTRATION CHANGES FOR EACH ITERATION:
  MAX. CHANGE LAYER,ROW,COL MAX. CHANGE LAYER,ROW,COL MAX. CHANGE LAYER,ROW,COL MAX. CHANGE LAYER,ROW,COL MAX. CHANGE LAYER,ROW,COL
 ------------------------------------------------------------------------------------------------------------------------------------
   0.1326E-03 ( 14,  3, 53)  0.4569E-05 (  5,  2, 64)  0.8320E-06 (  6,  1, 56)  0.1071E-06 (  4,  2, 46)  0.5281E-07 (  3,  3, 29)
=======
 = 0.6696E-02(WHEN MIN. R.F.=1)  AT K=   3, I=   2, J=  30
     1 CALLS TO GCG PACKAGE FOR TRANSPORT TIME STEP   6 IN FLOW TIME STEP  77 STRESS PERIOD   2
    14 TOTAL ITERATIONS
 
 SOLVING FOR HEAD 
 FLOW MODEL IS TRANSIENT
 FLOW MODEL CONTAINS CONSTANT-HEAD CELLS


 MAXIMUM STEPSIZE DURING WHICH ANY PARTICLE CANNOT MOVE MORE THAN ONE CELL
 = 0.1869    (WHEN MIN. R.F.=1)  AT K=   3, I=   2, J=  31

 MAXIMUM STEPSIZE WHICH MEETS STABILITY CRITERION OF THE ADVECTION TERM
 (FOR PURE FINITE-DIFFERENCE OPTION, MIXELM=0) 
 = 0.1248    (WHEN MIN. R.F.=1)  AT K=   3, I=   2, J=  30

>>>>>>> Stashed changes


                                          ================================================
                                                         FROM TIME =   80.000     TO    81.000    

<<<<<<< Updated upstream
=======
 MAXIMUM STEPSIZE WHICH MEETS STABILITY CRITERION OF THE DISPERSION TERM
 = 0.6696E-02(WHEN MIN. R.F.=1)  AT K=   3, I=   2, J=  30
     1 CALLS TO GCG PACKAGE FOR TRANSPORT TIME STEP   7 IN FLOW TIME STEP  77 STRESS PERIOD   2
    14 TOTAL ITERATIONS
>>>>>>> Stashed changes
 
 SOLVING FOR HEAD 
 FLOW MODEL IS TRANSIENT
 FLOW MODEL CONTAINS CONSTANT-HEAD CELLS


 MAXIMUM STEPSIZE DURING WHICH ANY PARTICLE CANNOT MOVE MORE THAN ONE CELL
<<<<<<< Updated upstream
 = 0.1632    (WHEN MIN. R.F.=1)  AT K=   3, I=   2, J=  29

 MAXIMUM STEPSIZE WHICH MEETS STABILITY CRITERION OF THE ADVECTION TERM
 (FOR PURE FINITE-DIFFERENCE OPTION, MIXELM=0) 
 = 0.1132    (WHEN MIN. R.F.=1)  AT K=   3, I=   2, J=  28
=======
 = 0.1869    (WHEN MIN. R.F.=1)  AT K=   3, I=   2, J=  31

 MAXIMUM STEPSIZE WHICH MEETS STABILITY CRITERION OF THE ADVECTION TERM
 (FOR PURE FINITE-DIFFERENCE OPTION, MIXELM=0) 
 = 0.1248    (WHEN MIN. R.F.=1)  AT K=   3, I=   2, J=  30
>>>>>>> Stashed changes


 TOTAL NUMBER OF POINT SOURCES/SINKS PRESENT IN THE FLOW MODEL =   240

 MAXIMUM STEPSIZE WHICH MEETS STABILITY CRITERION OF THE SINK & SOURCE TERM
 = 0.1000E+31(WHEN MIN. R.F.=1)  AT K=   0, I=   0, J=   0

 MAXIMUM STEPSIZE WHICH MEETS STABILITY CRITERION OF THE DISPERSION TERM
<<<<<<< Updated upstream
 = 0.6195E-02(WHEN MIN. R.F.=1)  AT K=   3, I=   2, J=  31


     1 CALLS TO GCG PACKAGE FOR TRANSPORT TIME STEP   1 IN FLOW TIME STEP  80 STRESS PERIOD   2
    13 TOTAL ITERATIONS

 NO OUTPUT CONTROL FOR STRESS PERIOD    2   TIME STEP  80
 
 SOLVING FOR HEAD 
 FLOW MODEL IS TRANSIENT
 FLOW MODEL CONTAINS CONSTANT-HEAD CELLS


 MAXIMUM STEPSIZE DURING WHICH ANY PARTICLE CANNOT MOVE MORE THAN ONE CELL
 = 0.1632    (WHEN MIN. R.F.=1)  AT K=   3, I=   2, J=  29

 MAXIMUM STEPSIZE WHICH MEETS STABILITY CRITERION OF THE ADVECTION TERM
 (FOR PURE FINITE-DIFFERENCE OPTION, MIXELM=0) 
 = 0.1132    (WHEN MIN. R.F.=1)  AT K=   3, I=   2, J=  28
=======
 = 0.6696E-02(WHEN MIN. R.F.=1)  AT K=   3, I=   2, J=  30
     1 CALLS TO GCG PACKAGE FOR TRANSPORT TIME STEP   8 IN FLOW TIME STEP  77 STRESS PERIOD   2
     5 TOTAL ITERATIONS
  MAXIMUM CONCENTRATION CHANGES FOR EACH ITERATION:
  MAX. CHANGE LAYER,ROW,COL MAX. CHANGE LAYER,ROW,COL MAX. CHANGE LAYER,ROW,COL MAX. CHANGE LAYER,ROW,COL MAX. CHANGE LAYER,ROW,COL
 ------------------------------------------------------------------------------------------------------------------------------------
   0.1020E-03 ( 14,  2, 56)  0.2935E-05 (  5,  2, 63)  0.5187E-06 (  4,  2, 55)  0.1490E-06 (  3,  2, 38)  0.5148E-07 (  4,  2, 38)
 UBDSV1 SAVING "         STORAGE" ON UNIT  53 AT TIME STEP 77, STRESS PERIOD   2
 UBDSV2 SAVING "   CONSTANT HEAD" ON UNIT  53 AT TIME STEP 77, STRESS PERIOD   2
 UBDSV1 SAVING "FLOW RIGHT FACE " ON UNIT  53 AT TIME STEP 77, STRESS PERIOD   2
 UBDSV1 SAVING "FLOW FRONT FACE " ON UNIT  53 AT TIME STEP 77, STRESS PERIOD   2
 UBDSV1 SAVING "FLOW LOWER FACE " ON UNIT  53 AT TIME STEP 77, STRESS PERIOD   2
 UBDSV1 SAVING "            DCDT" ON UNIT  53 AT TIME STEP 77, STRESS PERIOD   2
>>>>>>> Stashed changes

 HEAD WILL BE SAVED ON UNIT   51 AT END OF TIME STEP  77, STRESS PERIOD    2


                                          ================================================
                                                         FROM TIME =   78.000     TO    79.000    

<<<<<<< Updated upstream
 MAXIMUM STEPSIZE WHICH MEETS STABILITY CRITERION OF THE DISPERSION TERM
 = 0.6195E-02(WHEN MIN. R.F.=1)  AT K=   3, I=   2, J=  31
     1 CALLS TO GCG PACKAGE FOR TRANSPORT TIME STEP   2 IN FLOW TIME STEP  80 STRESS PERIOD   2
    14 TOTAL ITERATIONS
=======
>>>>>>> Stashed changes
 
 SOLVING FOR HEAD 
 FLOW MODEL IS TRANSIENT
 FLOW MODEL CONTAINS CONSTANT-HEAD CELLS


 MAXIMUM STEPSIZE DURING WHICH ANY PARTICLE CANNOT MOVE MORE THAN ONE CELL
<<<<<<< Updated upstream
 = 0.1632    (WHEN MIN. R.F.=1)  AT K=   3, I=   2, J=  29

 MAXIMUM STEPSIZE WHICH MEETS STABILITY CRITERION OF THE ADVECTION TERM
 (FOR PURE FINITE-DIFFERENCE OPTION, MIXELM=0) 
 = 0.1132    (WHEN MIN. R.F.=1)  AT K=   3, I=   2, J=  28
=======
 = 0.1869    (WHEN MIN. R.F.=1)  AT K=   3, I=   2, J=  31

 MAXIMUM STEPSIZE WHICH MEETS STABILITY CRITERION OF THE ADVECTION TERM
 (FOR PURE FINITE-DIFFERENCE OPTION, MIXELM=0) 
 = 0.1248    (WHEN MIN. R.F.=1)  AT K=   3, I=   2, J=  30
>>>>>>> Stashed changes


 TOTAL NUMBER OF POINT SOURCES/SINKS PRESENT IN THE FLOW MODEL =   240

 MAXIMUM STEPSIZE WHICH MEETS STABILITY CRITERION OF THE SINK & SOURCE TERM
 = 0.1000E+31(WHEN MIN. R.F.=1)  AT K=   0, I=   0, J=   0

 MAXIMUM STEPSIZE WHICH MEETS STABILITY CRITERION OF THE DISPERSION TERM
<<<<<<< Updated upstream
 = 0.6195E-02(WHEN MIN. R.F.=1)  AT K=   3, I=   2, J=  31
     1 CALLS TO GCG PACKAGE FOR TRANSPORT TIME STEP   3 IN FLOW TIME STEP  80 STRESS PERIOD   2
    12 TOTAL ITERATIONS
=======
 = 0.6696E-02(WHEN MIN. R.F.=1)  AT K=   3, I=   2, J=  30


     1 CALLS TO GCG PACKAGE FOR TRANSPORT TIME STEP   1 IN FLOW TIME STEP  78 STRESS PERIOD   2
    13 TOTAL ITERATIONS

 OUTPUT CONTROL FOR STRESS PERIOD    2   TIME STEP  78
    SAVE HEAD FOR ALL LAYERS
    SAVE BUDGET
>>>>>>> Stashed changes
 
 SOLVING FOR HEAD 
 FLOW MODEL IS TRANSIENT
 FLOW MODEL CONTAINS CONSTANT-HEAD CELLS


 MAXIMUM STEPSIZE DURING WHICH ANY PARTICLE CANNOT MOVE MORE THAN ONE CELL
<<<<<<< Updated upstream
 = 0.1632    (WHEN MIN. R.F.=1)  AT K=   3, I=   2, J=  29

 MAXIMUM STEPSIZE WHICH MEETS STABILITY CRITERION OF THE ADVECTION TERM
 (FOR PURE FINITE-DIFFERENCE OPTION, MIXELM=0) 
 = 0.1132    (WHEN MIN. R.F.=1)  AT K=   3, I=   2, J=  28
=======
 = 0.1869    (WHEN MIN. R.F.=1)  AT K=   3, I=   2, J=  31

 MAXIMUM STEPSIZE WHICH MEETS STABILITY CRITERION OF THE ADVECTION TERM
 (FOR PURE FINITE-DIFFERENCE OPTION, MIXELM=0) 
 = 0.1248    (WHEN MIN. R.F.=1)  AT K=   3, I=   2, J=  30
>>>>>>> Stashed changes


 TOTAL NUMBER OF POINT SOURCES/SINKS PRESENT IN THE FLOW MODEL =   240

 MAXIMUM STEPSIZE WHICH MEETS STABILITY CRITERION OF THE SINK & SOURCE TERM
 = 0.1000E+31(WHEN MIN. R.F.=1)  AT K=   0, I=   0, J=   0

 MAXIMUM STEPSIZE WHICH MEETS STABILITY CRITERION OF THE DISPERSION TERM
<<<<<<< Updated upstream
 = 0.6195E-02(WHEN MIN. R.F.=1)  AT K=   3, I=   2, J=  31
     1 CALLS TO GCG PACKAGE FOR TRANSPORT TIME STEP   4 IN FLOW TIME STEP  80 STRESS PERIOD   2
    13 TOTAL ITERATIONS
=======
 = 0.6696E-02(WHEN MIN. R.F.=1)  AT K=   3, I=   2, J=  30
     1 CALLS TO GCG PACKAGE FOR TRANSPORT TIME STEP   2 IN FLOW TIME STEP  78 STRESS PERIOD   2
    16 TOTAL ITERATIONS
>>>>>>> Stashed changes
 
 SOLVING FOR HEAD 
 FLOW MODEL IS TRANSIENT
 FLOW MODEL CONTAINS CONSTANT-HEAD CELLS


 MAXIMUM STEPSIZE DURING WHICH ANY PARTICLE CANNOT MOVE MORE THAN ONE CELL
<<<<<<< Updated upstream
 = 0.1632    (WHEN MIN. R.F.=1)  AT K=   3, I=   2, J=  29

 MAXIMUM STEPSIZE WHICH MEETS STABILITY CRITERION OF THE ADVECTION TERM
 (FOR PURE FINITE-DIFFERENCE OPTION, MIXELM=0) 
 = 0.1132    (WHEN MIN. R.F.=1)  AT K=   3, I=   2, J=  28
=======
 = 0.1869    (WHEN MIN. R.F.=1)  AT K=   3, I=   2, J=  31

 MAXIMUM STEPSIZE WHICH MEETS STABILITY CRITERION OF THE ADVECTION TERM
 (FOR PURE FINITE-DIFFERENCE OPTION, MIXELM=0) 
 = 0.1248    (WHEN MIN. R.F.=1)  AT K=   3, I=   2, J=  30
>>>>>>> Stashed changes


 TOTAL NUMBER OF POINT SOURCES/SINKS PRESENT IN THE FLOW MODEL =   240

 MAXIMUM STEPSIZE WHICH MEETS STABILITY CRITERION OF THE SINK & SOURCE TERM
 = 0.1000E+31(WHEN MIN. R.F.=1)  AT K=   0, I=   0, J=   0

 MAXIMUM STEPSIZE WHICH MEETS STABILITY CRITERION OF THE DISPERSION TERM
<<<<<<< Updated upstream
 = 0.6195E-02(WHEN MIN. R.F.=1)  AT K=   3, I=   2, J=  31
     1 CALLS TO GCG PACKAGE FOR TRANSPORT TIME STEP   5 IN FLOW TIME STEP  80 STRESS PERIOD   2
    12 TOTAL ITERATIONS
=======
 = 0.6696E-02(WHEN MIN. R.F.=1)  AT K=   3, I=   2, J=  30
     1 CALLS TO GCG PACKAGE FOR TRANSPORT TIME STEP   3 IN FLOW TIME STEP  78 STRESS PERIOD   2
    14 TOTAL ITERATIONS
>>>>>>> Stashed changes
 
 SOLVING FOR HEAD 
 FLOW MODEL IS TRANSIENT
 FLOW MODEL CONTAINS CONSTANT-HEAD CELLS


 MAXIMUM STEPSIZE DURING WHICH ANY PARTICLE CANNOT MOVE MORE THAN ONE CELL
<<<<<<< Updated upstream
 = 0.1632    (WHEN MIN. R.F.=1)  AT K=   3, I=   2, J=  29

 MAXIMUM STEPSIZE WHICH MEETS STABILITY CRITERION OF THE ADVECTION TERM
 (FOR PURE FINITE-DIFFERENCE OPTION, MIXELM=0) 
 = 0.1132    (WHEN MIN. R.F.=1)  AT K=   3, I=   2, J=  28
=======
 = 0.1869    (WHEN MIN. R.F.=1)  AT K=   3, I=   2, J=  31

 MAXIMUM STEPSIZE WHICH MEETS STABILITY CRITERION OF THE ADVECTION TERM
 (FOR PURE FINITE-DIFFERENCE OPTION, MIXELM=0) 
 = 0.1248    (WHEN MIN. R.F.=1)  AT K=   3, I=   2, J=  30
>>>>>>> Stashed changes


 TOTAL NUMBER OF POINT SOURCES/SINKS PRESENT IN THE FLOW MODEL =   240

 MAXIMUM STEPSIZE WHICH MEETS STABILITY CRITERION OF THE SINK & SOURCE TERM
 = 0.1000E+31(WHEN MIN. R.F.=1)  AT K=   0, I=   0, J=   0

 MAXIMUM STEPSIZE WHICH MEETS STABILITY CRITERION OF THE DISPERSION TERM
<<<<<<< Updated upstream
 = 0.6195E-02(WHEN MIN. R.F.=1)  AT K=   3, I=   2, J=  31
     1 CALLS TO GCG PACKAGE FOR TRANSPORT TIME STEP   6 IN FLOW TIME STEP  80 STRESS PERIOD   2
    12 TOTAL ITERATIONS
=======
 = 0.6696E-02(WHEN MIN. R.F.=1)  AT K=   3, I=   2, J=  30
     1 CALLS TO GCG PACKAGE FOR TRANSPORT TIME STEP   4 IN FLOW TIME STEP  78 STRESS PERIOD   2
    13 TOTAL ITERATIONS
>>>>>>> Stashed changes
 
 SOLVING FOR HEAD 
 FLOW MODEL IS TRANSIENT
 FLOW MODEL CONTAINS CONSTANT-HEAD CELLS


 MAXIMUM STEPSIZE DURING WHICH ANY PARTICLE CANNOT MOVE MORE THAN ONE CELL
<<<<<<< Updated upstream
 = 0.1632    (WHEN MIN. R.F.=1)  AT K=   3, I=   2, J=  29

 MAXIMUM STEPSIZE WHICH MEETS STABILITY CRITERION OF THE ADVECTION TERM
 (FOR PURE FINITE-DIFFERENCE OPTION, MIXELM=0) 
 = 0.1132    (WHEN MIN. R.F.=1)  AT K=   3, I=   2, J=  28
=======
 = 0.1869    (WHEN MIN. R.F.=1)  AT K=   3, I=   2, J=  31

 MAXIMUM STEPSIZE WHICH MEETS STABILITY CRITERION OF THE ADVECTION TERM
 (FOR PURE FINITE-DIFFERENCE OPTION, MIXELM=0) 
 = 0.1248    (WHEN MIN. R.F.=1)  AT K=   3, I=   2, J=  30
>>>>>>> Stashed changes


 TOTAL NUMBER OF POINT SOURCES/SINKS PRESENT IN THE FLOW MODEL =   240

 MAXIMUM STEPSIZE WHICH MEETS STABILITY CRITERION OF THE SINK & SOURCE TERM
 = 0.1000E+31(WHEN MIN. R.F.=1)  AT K=   0, I=   0, J=   0

 MAXIMUM STEPSIZE WHICH MEETS STABILITY CRITERION OF THE DISPERSION TERM
<<<<<<< Updated upstream
 = 0.6195E-02(WHEN MIN. R.F.=1)  AT K=   3, I=   2, J=  31
     1 CALLS TO GCG PACKAGE FOR TRANSPORT TIME STEP   7 IN FLOW TIME STEP  80 STRESS PERIOD   2
    13 TOTAL ITERATIONS
=======
 = 0.6696E-02(WHEN MIN. R.F.=1)  AT K=   3, I=   2, J=  30
     1 CALLS TO GCG PACKAGE FOR TRANSPORT TIME STEP   5 IN FLOW TIME STEP  78 STRESS PERIOD   2
    17 TOTAL ITERATIONS
>>>>>>> Stashed changes
 
 SOLVING FOR HEAD 
 FLOW MODEL IS TRANSIENT
 FLOW MODEL CONTAINS CONSTANT-HEAD CELLS


 MAXIMUM STEPSIZE DURING WHICH ANY PARTICLE CANNOT MOVE MORE THAN ONE CELL
<<<<<<< Updated upstream
 = 0.1632    (WHEN MIN. R.F.=1)  AT K=   3, I=   2, J=  29

 MAXIMUM STEPSIZE WHICH MEETS STABILITY CRITERION OF THE ADVECTION TERM
 (FOR PURE FINITE-DIFFERENCE OPTION, MIXELM=0) 
 = 0.1132    (WHEN MIN. R.F.=1)  AT K=   3, I=   2, J=  28
=======
 = 0.1869    (WHEN MIN. R.F.=1)  AT K=   3, I=   2, J=  31

 MAXIMUM STEPSIZE WHICH MEETS STABILITY CRITERION OF THE ADVECTION TERM
 (FOR PURE FINITE-DIFFERENCE OPTION, MIXELM=0) 
 = 0.1248    (WHEN MIN. R.F.=1)  AT K=   3, I=   2, J=  30
>>>>>>> Stashed changes


 TOTAL NUMBER OF POINT SOURCES/SINKS PRESENT IN THE FLOW MODEL =   240

 MAXIMUM STEPSIZE WHICH MEETS STABILITY CRITERION OF THE SINK & SOURCE TERM
 = 0.1000E+31(WHEN MIN. R.F.=1)  AT K=   0, I=   0, J=   0

 MAXIMUM STEPSIZE WHICH MEETS STABILITY CRITERION OF THE DISPERSION TERM
<<<<<<< Updated upstream
 = 0.6195E-02(WHEN MIN. R.F.=1)  AT K=   3, I=   2, J=  31
     1 CALLS TO GCG PACKAGE FOR TRANSPORT TIME STEP   8 IN FLOW TIME STEP  80 STRESS PERIOD   2
    14 TOTAL ITERATIONS
=======
 = 0.6696E-02(WHEN MIN. R.F.=1)  AT K=   3, I=   2, J=  30
     1 CALLS TO GCG PACKAGE FOR TRANSPORT TIME STEP   6 IN FLOW TIME STEP  78 STRESS PERIOD   2
    13 TOTAL ITERATIONS
>>>>>>> Stashed changes
 
 SOLVING FOR HEAD 
 FLOW MODEL IS TRANSIENT
 FLOW MODEL CONTAINS CONSTANT-HEAD CELLS


 MAXIMUM STEPSIZE DURING WHICH ANY PARTICLE CANNOT MOVE MORE THAN ONE CELL
<<<<<<< Updated upstream
 = 0.1632    (WHEN MIN. R.F.=1)  AT K=   3, I=   2, J=  29

 MAXIMUM STEPSIZE WHICH MEETS STABILITY CRITERION OF THE ADVECTION TERM
 (FOR PURE FINITE-DIFFERENCE OPTION, MIXELM=0) 
 = 0.1132    (WHEN MIN. R.F.=1)  AT K=   3, I=   2, J=  28
=======
 = 0.1869    (WHEN MIN. R.F.=1)  AT K=   3, I=   2, J=  31

 MAXIMUM STEPSIZE WHICH MEETS STABILITY CRITERION OF THE ADVECTION TERM
 (FOR PURE FINITE-DIFFERENCE OPTION, MIXELM=0) 
 = 0.1248    (WHEN MIN. R.F.=1)  AT K=   3, I=   2, J=  30
>>>>>>> Stashed changes


 TOTAL NUMBER OF POINT SOURCES/SINKS PRESENT IN THE FLOW MODEL =   240

 MAXIMUM STEPSIZE WHICH MEETS STABILITY CRITERION OF THE SINK & SOURCE TERM
 = 0.1000E+31(WHEN MIN. R.F.=1)  AT K=   0, I=   0, J=   0

 MAXIMUM STEPSIZE WHICH MEETS STABILITY CRITERION OF THE DISPERSION TERM
<<<<<<< Updated upstream
 = 0.6195E-02(WHEN MIN. R.F.=1)  AT K=   3, I=   2, J=  31
     1 CALLS TO GCG PACKAGE FOR TRANSPORT TIME STEP   9 IN FLOW TIME STEP  80 STRESS PERIOD   2
     5 TOTAL ITERATIONS
  MAXIMUM CONCENTRATION CHANGES FOR EACH ITERATION:
  MAX. CHANGE LAYER,ROW,COL MAX. CHANGE LAYER,ROW,COL MAX. CHANGE LAYER,ROW,COL MAX. CHANGE LAYER,ROW,COL MAX. CHANGE LAYER,ROW,COL
 ------------------------------------------------------------------------------------------------------------------------------------
   0.1320E-03 ( 14,  3, 53)  0.4459E-05 (  5,  2, 64)  0.8087E-06 (  6,  1, 56)  0.1001E-06 (  4,  2, 46)  0.5928E-07 (  3,  3, 29)


                                          ================================================
                                                         FROM TIME =   81.000     TO    82.000    

=======
 = 0.6696E-02(WHEN MIN. R.F.=1)  AT K=   3, I=   2, J=  30
     1 CALLS TO GCG PACKAGE FOR TRANSPORT TIME STEP   7 IN FLOW TIME STEP  78 STRESS PERIOD   2
    14 TOTAL ITERATIONS
>>>>>>> Stashed changes
 
 SOLVING FOR HEAD 
 FLOW MODEL IS TRANSIENT
 FLOW MODEL CONTAINS CONSTANT-HEAD CELLS


 MAXIMUM STEPSIZE DURING WHICH ANY PARTICLE CANNOT MOVE MORE THAN ONE CELL
<<<<<<< Updated upstream
 = 0.1632    (WHEN MIN. R.F.=1)  AT K=   3, I=   2, J=  29

 MAXIMUM STEPSIZE WHICH MEETS STABILITY CRITERION OF THE ADVECTION TERM
 (FOR PURE FINITE-DIFFERENCE OPTION, MIXELM=0) 
 = 0.1132    (WHEN MIN. R.F.=1)  AT K=   3, I=   2, J=  28
=======
 = 0.1869    (WHEN MIN. R.F.=1)  AT K=   3, I=   2, J=  31

 MAXIMUM STEPSIZE WHICH MEETS STABILITY CRITERION OF THE ADVECTION TERM
 (FOR PURE FINITE-DIFFERENCE OPTION, MIXELM=0) 
 = 0.1248    (WHEN MIN. R.F.=1)  AT K=   3, I=   2, J=  30
>>>>>>> Stashed changes


 TOTAL NUMBER OF POINT SOURCES/SINKS PRESENT IN THE FLOW MODEL =   240

 MAXIMUM STEPSIZE WHICH MEETS STABILITY CRITERION OF THE SINK & SOURCE TERM
 = 0.1000E+31(WHEN MIN. R.F.=1)  AT K=   0, I=   0, J=   0

 MAXIMUM STEPSIZE WHICH MEETS STABILITY CRITERION OF THE DISPERSION TERM
<<<<<<< Updated upstream
 = 0.6195E-02(WHEN MIN. R.F.=1)  AT K=   3, I=   2, J=  31


     1 CALLS TO GCG PACKAGE FOR TRANSPORT TIME STEP   1 IN FLOW TIME STEP  81 STRESS PERIOD   2
    12 TOTAL ITERATIONS

 NO OUTPUT CONTROL FOR STRESS PERIOD    2   TIME STEP  81
=======
 = 0.6696E-02(WHEN MIN. R.F.=1)  AT K=   3, I=   2, J=  30
     1 CALLS TO GCG PACKAGE FOR TRANSPORT TIME STEP   8 IN FLOW TIME STEP  78 STRESS PERIOD   2
     5 TOTAL ITERATIONS
  MAXIMUM CONCENTRATION CHANGES FOR EACH ITERATION:
  MAX. CHANGE LAYER,ROW,COL MAX. CHANGE LAYER,ROW,COL MAX. CHANGE LAYER,ROW,COL MAX. CHANGE LAYER,ROW,COL MAX. CHANGE LAYER,ROW,COL
 ------------------------------------------------------------------------------------------------------------------------------------
   0.1008E-03 ( 14,  2, 56)  0.2861E-05 (  5,  2, 63)  0.5039E-06 (  4,  2, 55)  0.1381E-06 (  3,  2, 43)  0.5494E-07 (  4,  1, 31)
 UBDSV1 SAVING "         STORAGE" ON UNIT  53 AT TIME STEP 78, STRESS PERIOD   2
 UBDSV2 SAVING "   CONSTANT HEAD" ON UNIT  53 AT TIME STEP 78, STRESS PERIOD   2
 UBDSV1 SAVING "FLOW RIGHT FACE " ON UNIT  53 AT TIME STEP 78, STRESS PERIOD   2
 UBDSV1 SAVING "FLOW FRONT FACE " ON UNIT  53 AT TIME STEP 78, STRESS PERIOD   2
 UBDSV1 SAVING "FLOW LOWER FACE " ON UNIT  53 AT TIME STEP 78, STRESS PERIOD   2
 UBDSV1 SAVING "            DCDT" ON UNIT  53 AT TIME STEP 78, STRESS PERIOD   2

 HEAD WILL BE SAVED ON UNIT   51 AT END OF TIME STEP  78, STRESS PERIOD    2


                                          ================================================
                                                         FROM TIME =   79.000     TO    80.000    

>>>>>>> Stashed changes
 
 SOLVING FOR HEAD 
 FLOW MODEL IS TRANSIENT
 FLOW MODEL CONTAINS CONSTANT-HEAD CELLS


 MAXIMUM STEPSIZE DURING WHICH ANY PARTICLE CANNOT MOVE MORE THAN ONE CELL
<<<<<<< Updated upstream
 = 0.1632    (WHEN MIN. R.F.=1)  AT K=   3, I=   2, J=  29

 MAXIMUM STEPSIZE WHICH MEETS STABILITY CRITERION OF THE ADVECTION TERM
 (FOR PURE FINITE-DIFFERENCE OPTION, MIXELM=0) 
 = 0.1132    (WHEN MIN. R.F.=1)  AT K=   3, I=   2, J=  28
=======
 = 0.1869    (WHEN MIN. R.F.=1)  AT K=   3, I=   2, J=  31

 MAXIMUM STEPSIZE WHICH MEETS STABILITY CRITERION OF THE ADVECTION TERM
 (FOR PURE FINITE-DIFFERENCE OPTION, MIXELM=0) 
 = 0.1248    (WHEN MIN. R.F.=1)  AT K=   3, I=   2, J=  30
>>>>>>> Stashed changes


 TOTAL NUMBER OF POINT SOURCES/SINKS PRESENT IN THE FLOW MODEL =   240

 MAXIMUM STEPSIZE WHICH MEETS STABILITY CRITERION OF THE SINK & SOURCE TERM
 = 0.1000E+31(WHEN MIN. R.F.=1)  AT K=   0, I=   0, J=   0

 MAXIMUM STEPSIZE WHICH MEETS STABILITY CRITERION OF THE DISPERSION TERM
<<<<<<< Updated upstream
 = 0.6195E-02(WHEN MIN. R.F.=1)  AT K=   3, I=   2, J=  31
     1 CALLS TO GCG PACKAGE FOR TRANSPORT TIME STEP   2 IN FLOW TIME STEP  81 STRESS PERIOD   2
    12 TOTAL ITERATIONS
=======
 = 0.6696E-02(WHEN MIN. R.F.=1)  AT K=   3, I=   2, J=  30


     1 CALLS TO GCG PACKAGE FOR TRANSPORT TIME STEP   1 IN FLOW TIME STEP  79 STRESS PERIOD   2
    15 TOTAL ITERATIONS

 OUTPUT CONTROL FOR STRESS PERIOD    2   TIME STEP  79
    SAVE HEAD FOR ALL LAYERS
    SAVE BUDGET
>>>>>>> Stashed changes
 
 SOLVING FOR HEAD 
 FLOW MODEL IS TRANSIENT
 FLOW MODEL CONTAINS CONSTANT-HEAD CELLS


 MAXIMUM STEPSIZE DURING WHICH ANY PARTICLE CANNOT MOVE MORE THAN ONE CELL
<<<<<<< Updated upstream
 = 0.1632    (WHEN MIN. R.F.=1)  AT K=   3, I=   2, J=  29

 MAXIMUM STEPSIZE WHICH MEETS STABILITY CRITERION OF THE ADVECTION TERM
 (FOR PURE FINITE-DIFFERENCE OPTION, MIXELM=0) 
 = 0.1132    (WHEN MIN. R.F.=1)  AT K=   3, I=   2, J=  28
=======
 = 0.1869    (WHEN MIN. R.F.=1)  AT K=   3, I=   2, J=  31

 MAXIMUM STEPSIZE WHICH MEETS STABILITY CRITERION OF THE ADVECTION TERM
 (FOR PURE FINITE-DIFFERENCE OPTION, MIXELM=0) 
 = 0.1248    (WHEN MIN. R.F.=1)  AT K=   3, I=   2, J=  30
>>>>>>> Stashed changes


 TOTAL NUMBER OF POINT SOURCES/SINKS PRESENT IN THE FLOW MODEL =   240

 MAXIMUM STEPSIZE WHICH MEETS STABILITY CRITERION OF THE SINK & SOURCE TERM
 = 0.1000E+31(WHEN MIN. R.F.=1)  AT K=   0, I=   0, J=   0

 MAXIMUM STEPSIZE WHICH MEETS STABILITY CRITERION OF THE DISPERSION TERM
<<<<<<< Updated upstream
 = 0.6195E-02(WHEN MIN. R.F.=1)  AT K=   3, I=   2, J=  31
     1 CALLS TO GCG PACKAGE FOR TRANSPORT TIME STEP   3 IN FLOW TIME STEP  81 STRESS PERIOD   2
    12 TOTAL ITERATIONS
=======
 = 0.6696E-02(WHEN MIN. R.F.=1)  AT K=   3, I=   2, J=  30
     1 CALLS TO GCG PACKAGE FOR TRANSPORT TIME STEP   2 IN FLOW TIME STEP  79 STRESS PERIOD   2
    14 TOTAL ITERATIONS
>>>>>>> Stashed changes
 
 SOLVING FOR HEAD 
 FLOW MODEL IS TRANSIENT
 FLOW MODEL CONTAINS CONSTANT-HEAD CELLS


 MAXIMUM STEPSIZE DURING WHICH ANY PARTICLE CANNOT MOVE MORE THAN ONE CELL
<<<<<<< Updated upstream
 = 0.1632    (WHEN MIN. R.F.=1)  AT K=   3, I=   2, J=  29

 MAXIMUM STEPSIZE WHICH MEETS STABILITY CRITERION OF THE ADVECTION TERM
 (FOR PURE FINITE-DIFFERENCE OPTION, MIXELM=0) 
 = 0.1132    (WHEN MIN. R.F.=1)  AT K=   3, I=   2, J=  28
=======
 = 0.1869    (WHEN MIN. R.F.=1)  AT K=   3, I=   2, J=  31

 MAXIMUM STEPSIZE WHICH MEETS STABILITY CRITERION OF THE ADVECTION TERM
 (FOR PURE FINITE-DIFFERENCE OPTION, MIXELM=0) 
 = 0.1248    (WHEN MIN. R.F.=1)  AT K=   3, I=   2, J=  30
>>>>>>> Stashed changes


 TOTAL NUMBER OF POINT SOURCES/SINKS PRESENT IN THE FLOW MODEL =   240

 MAXIMUM STEPSIZE WHICH MEETS STABILITY CRITERION OF THE SINK & SOURCE TERM
 = 0.1000E+31(WHEN MIN. R.F.=1)  AT K=   0, I=   0, J=   0

 MAXIMUM STEPSIZE WHICH MEETS STABILITY CRITERION OF THE DISPERSION TERM
<<<<<<< Updated upstream
 = 0.6195E-02(WHEN MIN. R.F.=1)  AT K=   3, I=   2, J=  31
     1 CALLS TO GCG PACKAGE FOR TRANSPORT TIME STEP   4 IN FLOW TIME STEP  81 STRESS PERIOD   2
    12 TOTAL ITERATIONS
=======
 = 0.6696E-02(WHEN MIN. R.F.=1)  AT K=   3, I=   2, J=  30
     1 CALLS TO GCG PACKAGE FOR TRANSPORT TIME STEP   3 IN FLOW TIME STEP  79 STRESS PERIOD   2
    13 TOTAL ITERATIONS
>>>>>>> Stashed changes
 
 SOLVING FOR HEAD 
 FLOW MODEL IS TRANSIENT
 FLOW MODEL CONTAINS CONSTANT-HEAD CELLS


 MAXIMUM STEPSIZE DURING WHICH ANY PARTICLE CANNOT MOVE MORE THAN ONE CELL
<<<<<<< Updated upstream
 = 0.1632    (WHEN MIN. R.F.=1)  AT K=   3, I=   2, J=  29

 MAXIMUM STEPSIZE WHICH MEETS STABILITY CRITERION OF THE ADVECTION TERM
 (FOR PURE FINITE-DIFFERENCE OPTION, MIXELM=0) 
 = 0.1132    (WHEN MIN. R.F.=1)  AT K=   3, I=   2, J=  28
=======
 = 0.1869    (WHEN MIN. R.F.=1)  AT K=   3, I=   2, J=  31

 MAXIMUM STEPSIZE WHICH MEETS STABILITY CRITERION OF THE ADVECTION TERM
 (FOR PURE FINITE-DIFFERENCE OPTION, MIXELM=0) 
 = 0.1248    (WHEN MIN. R.F.=1)  AT K=   3, I=   2, J=  30
>>>>>>> Stashed changes


 TOTAL NUMBER OF POINT SOURCES/SINKS PRESENT IN THE FLOW MODEL =   240

 MAXIMUM STEPSIZE WHICH MEETS STABILITY CRITERION OF THE SINK & SOURCE TERM
 = 0.1000E+31(WHEN MIN. R.F.=1)  AT K=   0, I=   0, J=   0

 MAXIMUM STEPSIZE WHICH MEETS STABILITY CRITERION OF THE DISPERSION TERM
<<<<<<< Updated upstream
 = 0.6195E-02(WHEN MIN. R.F.=1)  AT K=   3, I=   2, J=  31
     1 CALLS TO GCG PACKAGE FOR TRANSPORT TIME STEP   5 IN FLOW TIME STEP  81 STRESS PERIOD   2
    12 TOTAL ITERATIONS
=======
 = 0.6696E-02(WHEN MIN. R.F.=1)  AT K=   3, I=   2, J=  30
     1 CALLS TO GCG PACKAGE FOR TRANSPORT TIME STEP   4 IN FLOW TIME STEP  79 STRESS PERIOD   2
    14 TOTAL ITERATIONS
>>>>>>> Stashed changes
 
 SOLVING FOR HEAD 
 FLOW MODEL IS TRANSIENT
 FLOW MODEL CONTAINS CONSTANT-HEAD CELLS


 MAXIMUM STEPSIZE DURING WHICH ANY PARTICLE CANNOT MOVE MORE THAN ONE CELL
<<<<<<< Updated upstream
 = 0.1632    (WHEN MIN. R.F.=1)  AT K=   3, I=   2, J=  29

 MAXIMUM STEPSIZE WHICH MEETS STABILITY CRITERION OF THE ADVECTION TERM
 (FOR PURE FINITE-DIFFERENCE OPTION, MIXELM=0) 
 = 0.1132    (WHEN MIN. R.F.=1)  AT K=   3, I=   2, J=  28
=======
 = 0.1869    (WHEN MIN. R.F.=1)  AT K=   3, I=   2, J=  31

 MAXIMUM STEPSIZE WHICH MEETS STABILITY CRITERION OF THE ADVECTION TERM
 (FOR PURE FINITE-DIFFERENCE OPTION, MIXELM=0) 
 = 0.1248    (WHEN MIN. R.F.=1)  AT K=   3, I=   2, J=  30
>>>>>>> Stashed changes


 TOTAL NUMBER OF POINT SOURCES/SINKS PRESENT IN THE FLOW MODEL =   240

 MAXIMUM STEPSIZE WHICH MEETS STABILITY CRITERION OF THE SINK & SOURCE TERM
 = 0.1000E+31(WHEN MIN. R.F.=1)  AT K=   0, I=   0, J=   0

 MAXIMUM STEPSIZE WHICH MEETS STABILITY CRITERION OF THE DISPERSION TERM
<<<<<<< Updated upstream
 = 0.6195E-02(WHEN MIN. R.F.=1)  AT K=   3, I=   2, J=  31
     1 CALLS TO GCG PACKAGE FOR TRANSPORT TIME STEP   6 IN FLOW TIME STEP  81 STRESS PERIOD   2
    12 TOTAL ITERATIONS
=======
 = 0.6696E-02(WHEN MIN. R.F.=1)  AT K=   3, I=   2, J=  30
     1 CALLS TO GCG PACKAGE FOR TRANSPORT TIME STEP   5 IN FLOW TIME STEP  79 STRESS PERIOD   2
    14 TOTAL ITERATIONS
>>>>>>> Stashed changes
 
 SOLVING FOR HEAD 
 FLOW MODEL IS TRANSIENT
 FLOW MODEL CONTAINS CONSTANT-HEAD CELLS


 MAXIMUM STEPSIZE DURING WHICH ANY PARTICLE CANNOT MOVE MORE THAN ONE CELL
<<<<<<< Updated upstream
 = 0.1632    (WHEN MIN. R.F.=1)  AT K=   3, I=   2, J=  29

 MAXIMUM STEPSIZE WHICH MEETS STABILITY CRITERION OF THE ADVECTION TERM
 (FOR PURE FINITE-DIFFERENCE OPTION, MIXELM=0) 
 = 0.1132    (WHEN MIN. R.F.=1)  AT K=   3, I=   2, J=  28
=======
 = 0.1869    (WHEN MIN. R.F.=1)  AT K=   3, I=   2, J=  31

 MAXIMUM STEPSIZE WHICH MEETS STABILITY CRITERION OF THE ADVECTION TERM
 (FOR PURE FINITE-DIFFERENCE OPTION, MIXELM=0) 
 = 0.1248    (WHEN MIN. R.F.=1)  AT K=   3, I=   2, J=  30
>>>>>>> Stashed changes


 TOTAL NUMBER OF POINT SOURCES/SINKS PRESENT IN THE FLOW MODEL =   240

 MAXIMUM STEPSIZE WHICH MEETS STABILITY CRITERION OF THE SINK & SOURCE TERM
 = 0.1000E+31(WHEN MIN. R.F.=1)  AT K=   0, I=   0, J=   0

 MAXIMUM STEPSIZE WHICH MEETS STABILITY CRITERION OF THE DISPERSION TERM
<<<<<<< Updated upstream
 = 0.6194E-02(WHEN MIN. R.F.=1)  AT K=   3, I=   2, J=  31
     1 CALLS TO GCG PACKAGE FOR TRANSPORT TIME STEP   7 IN FLOW TIME STEP  81 STRESS PERIOD   2
    12 TOTAL ITERATIONS
=======
 = 0.6696E-02(WHEN MIN. R.F.=1)  AT K=   3, I=   2, J=  30
     1 CALLS TO GCG PACKAGE FOR TRANSPORT TIME STEP   6 IN FLOW TIME STEP  79 STRESS PERIOD   2
    14 TOTAL ITERATIONS
>>>>>>> Stashed changes
 
 SOLVING FOR HEAD 
 FLOW MODEL IS TRANSIENT
 FLOW MODEL CONTAINS CONSTANT-HEAD CELLS


 MAXIMUM STEPSIZE DURING WHICH ANY PARTICLE CANNOT MOVE MORE THAN ONE CELL
<<<<<<< Updated upstream
 = 0.1632    (WHEN MIN. R.F.=1)  AT K=   3, I=   2, J=  29

 MAXIMUM STEPSIZE WHICH MEETS STABILITY CRITERION OF THE ADVECTION TERM
 (FOR PURE FINITE-DIFFERENCE OPTION, MIXELM=0) 
 = 0.1132    (WHEN MIN. R.F.=1)  AT K=   3, I=   2, J=  28
=======
 = 0.1869    (WHEN MIN. R.F.=1)  AT K=   3, I=   2, J=  31

 MAXIMUM STEPSIZE WHICH MEETS STABILITY CRITERION OF THE ADVECTION TERM
 (FOR PURE FINITE-DIFFERENCE OPTION, MIXELM=0) 
 = 0.1248    (WHEN MIN. R.F.=1)  AT K=   3, I=   2, J=  30
>>>>>>> Stashed changes


 TOTAL NUMBER OF POINT SOURCES/SINKS PRESENT IN THE FLOW MODEL =   240

 MAXIMUM STEPSIZE WHICH MEETS STABILITY CRITERION OF THE SINK & SOURCE TERM
 = 0.1000E+31(WHEN MIN. R.F.=1)  AT K=   0, I=   0, J=   0

 MAXIMUM STEPSIZE WHICH MEETS STABILITY CRITERION OF THE DISPERSION TERM
<<<<<<< Updated upstream
 = 0.6194E-02(WHEN MIN. R.F.=1)  AT K=   3, I=   2, J=  31
     1 CALLS TO GCG PACKAGE FOR TRANSPORT TIME STEP   8 IN FLOW TIME STEP  81 STRESS PERIOD   2
    12 TOTAL ITERATIONS
=======
 = 0.6696E-02(WHEN MIN. R.F.=1)  AT K=   3, I=   2, J=  30
     1 CALLS TO GCG PACKAGE FOR TRANSPORT TIME STEP   7 IN FLOW TIME STEP  79 STRESS PERIOD   2
    13 TOTAL ITERATIONS
>>>>>>> Stashed changes
 
 SOLVING FOR HEAD 
 FLOW MODEL IS TRANSIENT
 FLOW MODEL CONTAINS CONSTANT-HEAD CELLS


 MAXIMUM STEPSIZE DURING WHICH ANY PARTICLE CANNOT MOVE MORE THAN ONE CELL
<<<<<<< Updated upstream
 = 0.1632    (WHEN MIN. R.F.=1)  AT K=   3, I=   2, J=  29

 MAXIMUM STEPSIZE WHICH MEETS STABILITY CRITERION OF THE ADVECTION TERM
 (FOR PURE FINITE-DIFFERENCE OPTION, MIXELM=0) 
 = 0.1132    (WHEN MIN. R.F.=1)  AT K=   3, I=   2, J=  28
=======
 = 0.1869    (WHEN MIN. R.F.=1)  AT K=   3, I=   2, J=  31

 MAXIMUM STEPSIZE WHICH MEETS STABILITY CRITERION OF THE ADVECTION TERM
 (FOR PURE FINITE-DIFFERENCE OPTION, MIXELM=0) 
 = 0.1248    (WHEN MIN. R.F.=1)  AT K=   3, I=   2, J=  30
>>>>>>> Stashed changes


 TOTAL NUMBER OF POINT SOURCES/SINKS PRESENT IN THE FLOW MODEL =   240

 MAXIMUM STEPSIZE WHICH MEETS STABILITY CRITERION OF THE SINK & SOURCE TERM
 = 0.1000E+31(WHEN MIN. R.F.=1)  AT K=   0, I=   0, J=   0

 MAXIMUM STEPSIZE WHICH MEETS STABILITY CRITERION OF THE DISPERSION TERM
<<<<<<< Updated upstream
 = 0.6194E-02(WHEN MIN. R.F.=1)  AT K=   3, I=   2, J=  31
     1 CALLS TO GCG PACKAGE FOR TRANSPORT TIME STEP   9 IN FLOW TIME STEP  81 STRESS PERIOD   2
     4 TOTAL ITERATIONS
  MAXIMUM CONCENTRATION CHANGES FOR EACH ITERATION:
  MAX. CHANGE LAYER,ROW,COL MAX. CHANGE LAYER,ROW,COL MAX. CHANGE LAYER,ROW,COL MAX. CHANGE LAYER,ROW,COL MAX. CHANGE LAYER,ROW,COL
 ------------------------------------------------------------------------------------------------------------------------------------
   0.1313E-03 ( 14,  3, 53)  0.4353E-05 (  5,  2, 64)  0.7868E-06 (  6,  1, 56)  0.9540E-07 (  4,  2, 46)


                                          ================================================
                                                         FROM TIME =   82.000     TO    83.000    
=======
 = 0.6696E-02(WHEN MIN. R.F.=1)  AT K=   3, I=   2, J=  30
     1 CALLS TO GCG PACKAGE FOR TRANSPORT TIME STEP   8 IN FLOW TIME STEP  79 STRESS PERIOD   2
     5 TOTAL ITERATIONS
  MAXIMUM CONCENTRATION CHANGES FOR EACH ITERATION:
  MAX. CHANGE LAYER,ROW,COL MAX. CHANGE LAYER,ROW,COL MAX. CHANGE LAYER,ROW,COL MAX. CHANGE LAYER,ROW,COL MAX. CHANGE LAYER,ROW,COL
 ------------------------------------------------------------------------------------------------------------------------------------
   0.9969E-04 ( 14,  2, 56)  0.2790E-05 (  5,  2, 63)  0.4896E-06 (  4,  2, 55)  0.1384E-06 (  3,  2, 44)  0.4710E-07 (  3,  2, 30)
 UBDSV1 SAVING "         STORAGE" ON UNIT  53 AT TIME STEP 79, STRESS PERIOD   2
 UBDSV2 SAVING "   CONSTANT HEAD" ON UNIT  53 AT TIME STEP 79, STRESS PERIOD   2
 UBDSV1 SAVING "FLOW RIGHT FACE " ON UNIT  53 AT TIME STEP 79, STRESS PERIOD   2
 UBDSV1 SAVING "FLOW FRONT FACE " ON UNIT  53 AT TIME STEP 79, STRESS PERIOD   2
 UBDSV1 SAVING "FLOW LOWER FACE " ON UNIT  53 AT TIME STEP 79, STRESS PERIOD   2
 UBDSV1 SAVING "            DCDT" ON UNIT  53 AT TIME STEP 79, STRESS PERIOD   2

 HEAD WILL BE SAVED ON UNIT   51 AT END OF TIME STEP  79, STRESS PERIOD    2


                                          ================================================
                                                         FROM TIME =   80.000     TO    81.000    
>>>>>>> Stashed changes

 
 SOLVING FOR HEAD 
 FLOW MODEL IS TRANSIENT
 FLOW MODEL CONTAINS CONSTANT-HEAD CELLS


 MAXIMUM STEPSIZE DURING WHICH ANY PARTICLE CANNOT MOVE MORE THAN ONE CELL
<<<<<<< Updated upstream
 = 0.1632    (WHEN MIN. R.F.=1)  AT K=   3, I=   2, J=  29

 MAXIMUM STEPSIZE WHICH MEETS STABILITY CRITERION OF THE ADVECTION TERM
 (FOR PURE FINITE-DIFFERENCE OPTION, MIXELM=0) 
 = 0.1132    (WHEN MIN. R.F.=1)  AT K=   3, I=   2, J=  28
=======
 = 0.1869    (WHEN MIN. R.F.=1)  AT K=   3, I=   2, J=  31

 MAXIMUM STEPSIZE WHICH MEETS STABILITY CRITERION OF THE ADVECTION TERM
 (FOR PURE FINITE-DIFFERENCE OPTION, MIXELM=0) 
 = 0.1248    (WHEN MIN. R.F.=1)  AT K=   3, I=   2, J=  30
>>>>>>> Stashed changes


 TOTAL NUMBER OF POINT SOURCES/SINKS PRESENT IN THE FLOW MODEL =   240

 MAXIMUM STEPSIZE WHICH MEETS STABILITY CRITERION OF THE SINK & SOURCE TERM
 = 0.1000E+31(WHEN MIN. R.F.=1)  AT K=   0, I=   0, J=   0

 MAXIMUM STEPSIZE WHICH MEETS STABILITY CRITERION OF THE DISPERSION TERM
<<<<<<< Updated upstream
 = 0.6194E-02(WHEN MIN. R.F.=1)  AT K=   3, I=   2, J=  31


     1 CALLS TO GCG PACKAGE FOR TRANSPORT TIME STEP   1 IN FLOW TIME STEP  82 STRESS PERIOD   2
    12 TOTAL ITERATIONS

 NO OUTPUT CONTROL FOR STRESS PERIOD    2   TIME STEP  82
=======
 = 0.6696E-02(WHEN MIN. R.F.=1)  AT K=   3, I=   2, J=  30


     1 CALLS TO GCG PACKAGE FOR TRANSPORT TIME STEP   1 IN FLOW TIME STEP  80 STRESS PERIOD   2
    13 TOTAL ITERATIONS

 OUTPUT CONTROL FOR STRESS PERIOD    2   TIME STEP  80
    SAVE HEAD FOR ALL LAYERS
    SAVE BUDGET
>>>>>>> Stashed changes
 
 SOLVING FOR HEAD 
 FLOW MODEL IS TRANSIENT
 FLOW MODEL CONTAINS CONSTANT-HEAD CELLS


 MAXIMUM STEPSIZE DURING WHICH ANY PARTICLE CANNOT MOVE MORE THAN ONE CELL
<<<<<<< Updated upstream
 = 0.1632    (WHEN MIN. R.F.=1)  AT K=   3, I=   2, J=  29

 MAXIMUM STEPSIZE WHICH MEETS STABILITY CRITERION OF THE ADVECTION TERM
 (FOR PURE FINITE-DIFFERENCE OPTION, MIXELM=0) 
 = 0.1132    (WHEN MIN. R.F.=1)  AT K=   3, I=   2, J=  28
=======
 = 0.1869    (WHEN MIN. R.F.=1)  AT K=   3, I=   2, J=  31

 MAXIMUM STEPSIZE WHICH MEETS STABILITY CRITERION OF THE ADVECTION TERM
 (FOR PURE FINITE-DIFFERENCE OPTION, MIXELM=0) 
 = 0.1248    (WHEN MIN. R.F.=1)  AT K=   3, I=   2, J=  30
>>>>>>> Stashed changes


 TOTAL NUMBER OF POINT SOURCES/SINKS PRESENT IN THE FLOW MODEL =   240

 MAXIMUM STEPSIZE WHICH MEETS STABILITY CRITERION OF THE SINK & SOURCE TERM
 = 0.1000E+31(WHEN MIN. R.F.=1)  AT K=   0, I=   0, J=   0

 MAXIMUM STEPSIZE WHICH MEETS STABILITY CRITERION OF THE DISPERSION TERM
<<<<<<< Updated upstream
 = 0.6194E-02(WHEN MIN. R.F.=1)  AT K=   3, I=   2, J=  31
     1 CALLS TO GCG PACKAGE FOR TRANSPORT TIME STEP   2 IN FLOW TIME STEP  82 STRESS PERIOD   2
    12 TOTAL ITERATIONS
=======
 = 0.6696E-02(WHEN MIN. R.F.=1)  AT K=   3, I=   2, J=  30
     1 CALLS TO GCG PACKAGE FOR TRANSPORT TIME STEP   2 IN FLOW TIME STEP  80 STRESS PERIOD   2
    17 TOTAL ITERATIONS
>>>>>>> Stashed changes
 
 SOLVING FOR HEAD 
 FLOW MODEL IS TRANSIENT
 FLOW MODEL CONTAINS CONSTANT-HEAD CELLS


 MAXIMUM STEPSIZE DURING WHICH ANY PARTICLE CANNOT MOVE MORE THAN ONE CELL
<<<<<<< Updated upstream
 = 0.1632    (WHEN MIN. R.F.=1)  AT K=   3, I=   2, J=  29

 MAXIMUM STEPSIZE WHICH MEETS STABILITY CRITERION OF THE ADVECTION TERM
 (FOR PURE FINITE-DIFFERENCE OPTION, MIXELM=0) 
 = 0.1132    (WHEN MIN. R.F.=1)  AT K=   3, I=   2, J=  28
=======
 = 0.1869    (WHEN MIN. R.F.=1)  AT K=   3, I=   2, J=  31

 MAXIMUM STEPSIZE WHICH MEETS STABILITY CRITERION OF THE ADVECTION TERM
 (FOR PURE FINITE-DIFFERENCE OPTION, MIXELM=0) 
 = 0.1248    (WHEN MIN. R.F.=1)  AT K=   3, I=   2, J=  30
>>>>>>> Stashed changes


 TOTAL NUMBER OF POINT SOURCES/SINKS PRESENT IN THE FLOW MODEL =   240

 MAXIMUM STEPSIZE WHICH MEETS STABILITY CRITERION OF THE SINK & SOURCE TERM
 = 0.1000E+31(WHEN MIN. R.F.=1)  AT K=   0, I=   0, J=   0

 MAXIMUM STEPSIZE WHICH MEETS STABILITY CRITERION OF THE DISPERSION TERM
<<<<<<< Updated upstream
 = 0.6194E-02(WHEN MIN. R.F.=1)  AT K=   3, I=   2, J=  31
     1 CALLS TO GCG PACKAGE FOR TRANSPORT TIME STEP   3 IN FLOW TIME STEP  82 STRESS PERIOD   2
    12 TOTAL ITERATIONS
=======
 = 0.6696E-02(WHEN MIN. R.F.=1)  AT K=   3, I=   2, J=  30
     1 CALLS TO GCG PACKAGE FOR TRANSPORT TIME STEP   3 IN FLOW TIME STEP  80 STRESS PERIOD   2
    13 TOTAL ITERATIONS
>>>>>>> Stashed changes
 
 SOLVING FOR HEAD 
 FLOW MODEL IS TRANSIENT
 FLOW MODEL CONTAINS CONSTANT-HEAD CELLS


 MAXIMUM STEPSIZE DURING WHICH ANY PARTICLE CANNOT MOVE MORE THAN ONE CELL
<<<<<<< Updated upstream
 = 0.1632    (WHEN MIN. R.F.=1)  AT K=   3, I=   2, J=  29

 MAXIMUM STEPSIZE WHICH MEETS STABILITY CRITERION OF THE ADVECTION TERM
 (FOR PURE FINITE-DIFFERENCE OPTION, MIXELM=0) 
 = 0.1132    (WHEN MIN. R.F.=1)  AT K=   3, I=   2, J=  28
=======
 = 0.1869    (WHEN MIN. R.F.=1)  AT K=   3, I=   2, J=  31

 MAXIMUM STEPSIZE WHICH MEETS STABILITY CRITERION OF THE ADVECTION TERM
 (FOR PURE FINITE-DIFFERENCE OPTION, MIXELM=0) 
 = 0.1248    (WHEN MIN. R.F.=1)  AT K=   3, I=   2, J=  30
>>>>>>> Stashed changes


 TOTAL NUMBER OF POINT SOURCES/SINKS PRESENT IN THE FLOW MODEL =   240

 MAXIMUM STEPSIZE WHICH MEETS STABILITY CRITERION OF THE SINK & SOURCE TERM
 = 0.1000E+31(WHEN MIN. R.F.=1)  AT K=   0, I=   0, J=   0

 MAXIMUM STEPSIZE WHICH MEETS STABILITY CRITERION OF THE DISPERSION TERM
<<<<<<< Updated upstream
 = 0.6194E-02(WHEN MIN. R.F.=1)  AT K=   3, I=   2, J=  31
     1 CALLS TO GCG PACKAGE FOR TRANSPORT TIME STEP   4 IN FLOW TIME STEP  82 STRESS PERIOD   2
    12 TOTAL ITERATIONS
=======
 = 0.6696E-02(WHEN MIN. R.F.=1)  AT K=   3, I=   2, J=  30
     1 CALLS TO GCG PACKAGE FOR TRANSPORT TIME STEP   4 IN FLOW TIME STEP  80 STRESS PERIOD   2
    16 TOTAL ITERATIONS
>>>>>>> Stashed changes
 
 SOLVING FOR HEAD 
 FLOW MODEL IS TRANSIENT
 FLOW MODEL CONTAINS CONSTANT-HEAD CELLS


 MAXIMUM STEPSIZE DURING WHICH ANY PARTICLE CANNOT MOVE MORE THAN ONE CELL
<<<<<<< Updated upstream
 = 0.1632    (WHEN MIN. R.F.=1)  AT K=   3, I=   2, J=  29

 MAXIMUM STEPSIZE WHICH MEETS STABILITY CRITERION OF THE ADVECTION TERM
 (FOR PURE FINITE-DIFFERENCE OPTION, MIXELM=0) 
 = 0.1132    (WHEN MIN. R.F.=1)  AT K=   3, I=   2, J=  28
=======
 = 0.1869    (WHEN MIN. R.F.=1)  AT K=   3, I=   2, J=  31

 MAXIMUM STEPSIZE WHICH MEETS STABILITY CRITERION OF THE ADVECTION TERM
 (FOR PURE FINITE-DIFFERENCE OPTION, MIXELM=0) 
 = 0.1248    (WHEN MIN. R.F.=1)  AT K=   3, I=   2, J=  30
>>>>>>> Stashed changes


 TOTAL NUMBER OF POINT SOURCES/SINKS PRESENT IN THE FLOW MODEL =   240

 MAXIMUM STEPSIZE WHICH MEETS STABILITY CRITERION OF THE SINK & SOURCE TERM
 = 0.1000E+31(WHEN MIN. R.F.=1)  AT K=   0, I=   0, J=   0

 MAXIMUM STEPSIZE WHICH MEETS STABILITY CRITERION OF THE DISPERSION TERM
<<<<<<< Updated upstream
 = 0.6194E-02(WHEN MIN. R.F.=1)  AT K=   3, I=   2, J=  31
     1 CALLS TO GCG PACKAGE FOR TRANSPORT TIME STEP   5 IN FLOW TIME STEP  82 STRESS PERIOD   2
    12 TOTAL ITERATIONS
=======
 = 0.6696E-02(WHEN MIN. R.F.=1)  AT K=   3, I=   2, J=  30
     1 CALLS TO GCG PACKAGE FOR TRANSPORT TIME STEP   5 IN FLOW TIME STEP  80 STRESS PERIOD   2
    14 TOTAL ITERATIONS
>>>>>>> Stashed changes
 
 SOLVING FOR HEAD 
 FLOW MODEL IS TRANSIENT
 FLOW MODEL CONTAINS CONSTANT-HEAD CELLS


 MAXIMUM STEPSIZE DURING WHICH ANY PARTICLE CANNOT MOVE MORE THAN ONE CELL
<<<<<<< Updated upstream
 = 0.1632    (WHEN MIN. R.F.=1)  AT K=   3, I=   2, J=  29

 MAXIMUM STEPSIZE WHICH MEETS STABILITY CRITERION OF THE ADVECTION TERM
 (FOR PURE FINITE-DIFFERENCE OPTION, MIXELM=0) 
 = 0.1132    (WHEN MIN. R.F.=1)  AT K=   3, I=   2, J=  28
=======
 = 0.1869    (WHEN MIN. R.F.=1)  AT K=   3, I=   2, J=  31

 MAXIMUM STEPSIZE WHICH MEETS STABILITY CRITERION OF THE ADVECTION TERM
 (FOR PURE FINITE-DIFFERENCE OPTION, MIXELM=0) 
 = 0.1248    (WHEN MIN. R.F.=1)  AT K=   3, I=   2, J=  30
>>>>>>> Stashed changes


 TOTAL NUMBER OF POINT SOURCES/SINKS PRESENT IN THE FLOW MODEL =   240

 MAXIMUM STEPSIZE WHICH MEETS STABILITY CRITERION OF THE SINK & SOURCE TERM
 = 0.1000E+31(WHEN MIN. R.F.=1)  AT K=   0, I=   0, J=   0

 MAXIMUM STEPSIZE WHICH MEETS STABILITY CRITERION OF THE DISPERSION TERM
<<<<<<< Updated upstream
 = 0.6194E-02(WHEN MIN. R.F.=1)  AT K=   3, I=   2, J=  31
     1 CALLS TO GCG PACKAGE FOR TRANSPORT TIME STEP   6 IN FLOW TIME STEP  82 STRESS PERIOD   2
    12 TOTAL ITERATIONS
=======
 = 0.6696E-02(WHEN MIN. R.F.=1)  AT K=   3, I=   2, J=  30
     1 CALLS TO GCG PACKAGE FOR TRANSPORT TIME STEP   6 IN FLOW TIME STEP  80 STRESS PERIOD   2
    13 TOTAL ITERATIONS
>>>>>>> Stashed changes
 
 SOLVING FOR HEAD 
 FLOW MODEL IS TRANSIENT
 FLOW MODEL CONTAINS CONSTANT-HEAD CELLS


 MAXIMUM STEPSIZE DURING WHICH ANY PARTICLE CANNOT MOVE MORE THAN ONE CELL
<<<<<<< Updated upstream
 = 0.1632    (WHEN MIN. R.F.=1)  AT K=   3, I=   2, J=  29

 MAXIMUM STEPSIZE WHICH MEETS STABILITY CRITERION OF THE ADVECTION TERM
 (FOR PURE FINITE-DIFFERENCE OPTION, MIXELM=0) 
 = 0.1132    (WHEN MIN. R.F.=1)  AT K=   3, I=   2, J=  28
=======
 = 0.1869    (WHEN MIN. R.F.=1)  AT K=   3, I=   2, J=  31

 MAXIMUM STEPSIZE WHICH MEETS STABILITY CRITERION OF THE ADVECTION TERM
 (FOR PURE FINITE-DIFFERENCE OPTION, MIXELM=0) 
 = 0.1248    (WHEN MIN. R.F.=1)  AT K=   3, I=   2, J=  30
>>>>>>> Stashed changes


 TOTAL NUMBER OF POINT SOURCES/SINKS PRESENT IN THE FLOW MODEL =   240

 MAXIMUM STEPSIZE WHICH MEETS STABILITY CRITERION OF THE SINK & SOURCE TERM
 = 0.1000E+31(WHEN MIN. R.F.=1)  AT K=   0, I=   0, J=   0

 MAXIMUM STEPSIZE WHICH MEETS STABILITY CRITERION OF THE DISPERSION TERM
<<<<<<< Updated upstream
 = 0.6194E-02(WHEN MIN. R.F.=1)  AT K=   3, I=   2, J=  31
     1 CALLS TO GCG PACKAGE FOR TRANSPORT TIME STEP   7 IN FLOW TIME STEP  82 STRESS PERIOD   2
    12 TOTAL ITERATIONS
=======
 = 0.6696E-02(WHEN MIN. R.F.=1)  AT K=   3, I=   2, J=  30
     1 CALLS TO GCG PACKAGE FOR TRANSPORT TIME STEP   7 IN FLOW TIME STEP  80 STRESS PERIOD   2
    14 TOTAL ITERATIONS
>>>>>>> Stashed changes
 
 SOLVING FOR HEAD 
 FLOW MODEL IS TRANSIENT
 FLOW MODEL CONTAINS CONSTANT-HEAD CELLS


 MAXIMUM STEPSIZE DURING WHICH ANY PARTICLE CANNOT MOVE MORE THAN ONE CELL
<<<<<<< Updated upstream
 = 0.1632    (WHEN MIN. R.F.=1)  AT K=   3, I=   2, J=  29

 MAXIMUM STEPSIZE WHICH MEETS STABILITY CRITERION OF THE ADVECTION TERM
 (FOR PURE FINITE-DIFFERENCE OPTION, MIXELM=0) 
 = 0.1132    (WHEN MIN. R.F.=1)  AT K=   3, I=   2, J=  28
=======
 = 0.1869    (WHEN MIN. R.F.=1)  AT K=   3, I=   2, J=  31

 MAXIMUM STEPSIZE WHICH MEETS STABILITY CRITERION OF THE ADVECTION TERM
 (FOR PURE FINITE-DIFFERENCE OPTION, MIXELM=0) 
 = 0.1248    (WHEN MIN. R.F.=1)  AT K=   3, I=   2, J=  30
>>>>>>> Stashed changes


 TOTAL NUMBER OF POINT SOURCES/SINKS PRESENT IN THE FLOW MODEL =   240

 MAXIMUM STEPSIZE WHICH MEETS STABILITY CRITERION OF THE SINK & SOURCE TERM
 = 0.1000E+31(WHEN MIN. R.F.=1)  AT K=   0, I=   0, J=   0

 MAXIMUM STEPSIZE WHICH MEETS STABILITY CRITERION OF THE DISPERSION TERM
<<<<<<< Updated upstream
 = 0.6194E-02(WHEN MIN. R.F.=1)  AT K=   3, I=   2, J=  31
     1 CALLS TO GCG PACKAGE FOR TRANSPORT TIME STEP   8 IN FLOW TIME STEP  82 STRESS PERIOD   2
    12 TOTAL ITERATIONS
=======
 = 0.6696E-02(WHEN MIN. R.F.=1)  AT K=   3, I=   2, J=  30
     1 CALLS TO GCG PACKAGE FOR TRANSPORT TIME STEP   8 IN FLOW TIME STEP  80 STRESS PERIOD   2
     5 TOTAL ITERATIONS
  MAXIMUM CONCENTRATION CHANGES FOR EACH ITERATION:
  MAX. CHANGE LAYER,ROW,COL MAX. CHANGE LAYER,ROW,COL MAX. CHANGE LAYER,ROW,COL MAX. CHANGE LAYER,ROW,COL MAX. CHANGE LAYER,ROW,COL
 ------------------------------------------------------------------------------------------------------------------------------------
   0.9855E-04 ( 14,  2, 56)  0.2721E-05 (  5,  2, 63)  0.4754E-06 (  4,  2, 56)  0.1295E-06 (  3,  2, 37)  0.4860E-07 (  4,  2, 37)
 UBDSV1 SAVING "         STORAGE" ON UNIT  53 AT TIME STEP 80, STRESS PERIOD   2
 UBDSV2 SAVING "   CONSTANT HEAD" ON UNIT  53 AT TIME STEP 80, STRESS PERIOD   2
 UBDSV1 SAVING "FLOW RIGHT FACE " ON UNIT  53 AT TIME STEP 80, STRESS PERIOD   2
 UBDSV1 SAVING "FLOW FRONT FACE " ON UNIT  53 AT TIME STEP 80, STRESS PERIOD   2
 UBDSV1 SAVING "FLOW LOWER FACE " ON UNIT  53 AT TIME STEP 80, STRESS PERIOD   2
 UBDSV1 SAVING "            DCDT" ON UNIT  53 AT TIME STEP 80, STRESS PERIOD   2

 HEAD WILL BE SAVED ON UNIT   51 AT END OF TIME STEP  80, STRESS PERIOD    2


                                          ================================================
                                                         FROM TIME =   81.000     TO    82.000    

>>>>>>> Stashed changes
 
 SOLVING FOR HEAD 
 FLOW MODEL IS TRANSIENT
 FLOW MODEL CONTAINS CONSTANT-HEAD CELLS


 MAXIMUM STEPSIZE DURING WHICH ANY PARTICLE CANNOT MOVE MORE THAN ONE CELL
<<<<<<< Updated upstream
 = 0.1632    (WHEN MIN. R.F.=1)  AT K=   3, I=   2, J=  29

 MAXIMUM STEPSIZE WHICH MEETS STABILITY CRITERION OF THE ADVECTION TERM
 (FOR PURE FINITE-DIFFERENCE OPTION, MIXELM=0) 
 = 0.1132    (WHEN MIN. R.F.=1)  AT K=   3, I=   2, J=  28
=======
 = 0.1869    (WHEN MIN. R.F.=1)  AT K=   3, I=   2, J=  31

 MAXIMUM STEPSIZE WHICH MEETS STABILITY CRITERION OF THE ADVECTION TERM
 (FOR PURE FINITE-DIFFERENCE OPTION, MIXELM=0) 
 = 0.1248    (WHEN MIN. R.F.=1)  AT K=   3, I=   2, J=  30
>>>>>>> Stashed changes


 TOTAL NUMBER OF POINT SOURCES/SINKS PRESENT IN THE FLOW MODEL =   240

 MAXIMUM STEPSIZE WHICH MEETS STABILITY CRITERION OF THE SINK & SOURCE TERM
 = 0.1000E+31(WHEN MIN. R.F.=1)  AT K=   0, I=   0, J=   0

 MAXIMUM STEPSIZE WHICH MEETS STABILITY CRITERION OF THE DISPERSION TERM
<<<<<<< Updated upstream
 = 0.6194E-02(WHEN MIN. R.F.=1)  AT K=   3, I=   2, J=  31
     1 CALLS TO GCG PACKAGE FOR TRANSPORT TIME STEP   9 IN FLOW TIME STEP  82 STRESS PERIOD   2
     4 TOTAL ITERATIONS
  MAXIMUM CONCENTRATION CHANGES FOR EACH ITERATION:
  MAX. CHANGE LAYER,ROW,COL MAX. CHANGE LAYER,ROW,COL MAX. CHANGE LAYER,ROW,COL MAX. CHANGE LAYER,ROW,COL MAX. CHANGE LAYER,ROW,COL
 ------------------------------------------------------------------------------------------------------------------------------------
   0.1305E-03 ( 14,  3, 53)  0.4250E-05 (  5,  2, 64)  0.7648E-06 (  6,  1, 56)  0.8993E-07 (  4,  2, 46)


                                          ================================================
                                                         FROM TIME =   83.000     TO    84.000    

=======
 = 0.6696E-02(WHEN MIN. R.F.=1)  AT K=   3, I=   2, J=  30


     1 CALLS TO GCG PACKAGE FOR TRANSPORT TIME STEP   1 IN FLOW TIME STEP  81 STRESS PERIOD   2
    13 TOTAL ITERATIONS

 OUTPUT CONTROL FOR STRESS PERIOD    2   TIME STEP  81
    SAVE HEAD FOR ALL LAYERS
    SAVE BUDGET
>>>>>>> Stashed changes
 
 SOLVING FOR HEAD 
 FLOW MODEL IS TRANSIENT
 FLOW MODEL CONTAINS CONSTANT-HEAD CELLS


 MAXIMUM STEPSIZE DURING WHICH ANY PARTICLE CANNOT MOVE MORE THAN ONE CELL
<<<<<<< Updated upstream
 = 0.1632    (WHEN MIN. R.F.=1)  AT K=   3, I=   2, J=  29

 MAXIMUM STEPSIZE WHICH MEETS STABILITY CRITERION OF THE ADVECTION TERM
 (FOR PURE FINITE-DIFFERENCE OPTION, MIXELM=0) 
 = 0.1132    (WHEN MIN. R.F.=1)  AT K=   3, I=   2, J=  28
=======
 = 0.1869    (WHEN MIN. R.F.=1)  AT K=   3, I=   2, J=  31

 MAXIMUM STEPSIZE WHICH MEETS STABILITY CRITERION OF THE ADVECTION TERM
 (FOR PURE FINITE-DIFFERENCE OPTION, MIXELM=0) 
 = 0.1248    (WHEN MIN. R.F.=1)  AT K=   3, I=   2, J=  30
>>>>>>> Stashed changes


 TOTAL NUMBER OF POINT SOURCES/SINKS PRESENT IN THE FLOW MODEL =   240

 MAXIMUM STEPSIZE WHICH MEETS STABILITY CRITERION OF THE SINK & SOURCE TERM
 = 0.1000E+31(WHEN MIN. R.F.=1)  AT K=   0, I=   0, J=   0

 MAXIMUM STEPSIZE WHICH MEETS STABILITY CRITERION OF THE DISPERSION TERM
<<<<<<< Updated upstream
 = 0.6194E-02(WHEN MIN. R.F.=1)  AT K=   3, I=   2, J=  31


     1 CALLS TO GCG PACKAGE FOR TRANSPORT TIME STEP   1 IN FLOW TIME STEP  83 STRESS PERIOD   2
    12 TOTAL ITERATIONS

 NO OUTPUT CONTROL FOR STRESS PERIOD    2   TIME STEP  83
=======
 = 0.6696E-02(WHEN MIN. R.F.=1)  AT K=   3, I=   2, J=  30
     1 CALLS TO GCG PACKAGE FOR TRANSPORT TIME STEP   2 IN FLOW TIME STEP  81 STRESS PERIOD   2
    14 TOTAL ITERATIONS
>>>>>>> Stashed changes
 
 SOLVING FOR HEAD 
 FLOW MODEL IS TRANSIENT
 FLOW MODEL CONTAINS CONSTANT-HEAD CELLS


 MAXIMUM STEPSIZE DURING WHICH ANY PARTICLE CANNOT MOVE MORE THAN ONE CELL
<<<<<<< Updated upstream
 = 0.1632    (WHEN MIN. R.F.=1)  AT K=   3, I=   2, J=  29

 MAXIMUM STEPSIZE WHICH MEETS STABILITY CRITERION OF THE ADVECTION TERM
 (FOR PURE FINITE-DIFFERENCE OPTION, MIXELM=0) 
 = 0.1132    (WHEN MIN. R.F.=1)  AT K=   3, I=   2, J=  28
=======
 = 0.1869    (WHEN MIN. R.F.=1)  AT K=   3, I=   2, J=  31

 MAXIMUM STEPSIZE WHICH MEETS STABILITY CRITERION OF THE ADVECTION TERM
 (FOR PURE FINITE-DIFFERENCE OPTION, MIXELM=0) 
 = 0.1248    (WHEN MIN. R.F.=1)  AT K=   3, I=   2, J=  30
>>>>>>> Stashed changes


 TOTAL NUMBER OF POINT SOURCES/SINKS PRESENT IN THE FLOW MODEL =   240

 MAXIMUM STEPSIZE WHICH MEETS STABILITY CRITERION OF THE SINK & SOURCE TERM
 = 0.1000E+31(WHEN MIN. R.F.=1)  AT K=   0, I=   0, J=   0

 MAXIMUM STEPSIZE WHICH MEETS STABILITY CRITERION OF THE DISPERSION TERM
<<<<<<< Updated upstream
 = 0.6194E-02(WHEN MIN. R.F.=1)  AT K=   3, I=   2, J=  31
     1 CALLS TO GCG PACKAGE FOR TRANSPORT TIME STEP   2 IN FLOW TIME STEP  83 STRESS PERIOD   2
    12 TOTAL ITERATIONS
=======
 = 0.6696E-02(WHEN MIN. R.F.=1)  AT K=   3, I=   2, J=  30
     1 CALLS TO GCG PACKAGE FOR TRANSPORT TIME STEP   3 IN FLOW TIME STEP  81 STRESS PERIOD   2
    13 TOTAL ITERATIONS
>>>>>>> Stashed changes
 
 SOLVING FOR HEAD 
 FLOW MODEL IS TRANSIENT
 FLOW MODEL CONTAINS CONSTANT-HEAD CELLS


 MAXIMUM STEPSIZE DURING WHICH ANY PARTICLE CANNOT MOVE MORE THAN ONE CELL
<<<<<<< Updated upstream
 = 0.1632    (WHEN MIN. R.F.=1)  AT K=   3, I=   2, J=  29

 MAXIMUM STEPSIZE WHICH MEETS STABILITY CRITERION OF THE ADVECTION TERM
 (FOR PURE FINITE-DIFFERENCE OPTION, MIXELM=0) 
 = 0.1132    (WHEN MIN. R.F.=1)  AT K=   3, I=   2, J=  28
=======
 = 0.1869    (WHEN MIN. R.F.=1)  AT K=   3, I=   2, J=  31

 MAXIMUM STEPSIZE WHICH MEETS STABILITY CRITERION OF THE ADVECTION TERM
 (FOR PURE FINITE-DIFFERENCE OPTION, MIXELM=0) 
 = 0.1248    (WHEN MIN. R.F.=1)  AT K=   3, I=   2, J=  30
>>>>>>> Stashed changes


 TOTAL NUMBER OF POINT SOURCES/SINKS PRESENT IN THE FLOW MODEL =   240

 MAXIMUM STEPSIZE WHICH MEETS STABILITY CRITERION OF THE SINK & SOURCE TERM
 = 0.1000E+31(WHEN MIN. R.F.=1)  AT K=   0, I=   0, J=   0

 MAXIMUM STEPSIZE WHICH MEETS STABILITY CRITERION OF THE DISPERSION TERM
<<<<<<< Updated upstream
 = 0.6194E-02(WHEN MIN. R.F.=1)  AT K=   3, I=   2, J=  31
     1 CALLS TO GCG PACKAGE FOR TRANSPORT TIME STEP   3 IN FLOW TIME STEP  83 STRESS PERIOD   2
    12 TOTAL ITERATIONS
=======
 = 0.6696E-02(WHEN MIN. R.F.=1)  AT K=   3, I=   2, J=  30
     1 CALLS TO GCG PACKAGE FOR TRANSPORT TIME STEP   4 IN FLOW TIME STEP  81 STRESS PERIOD   2
    13 TOTAL ITERATIONS
>>>>>>> Stashed changes
 
 SOLVING FOR HEAD 
 FLOW MODEL IS TRANSIENT
 FLOW MODEL CONTAINS CONSTANT-HEAD CELLS


 MAXIMUM STEPSIZE DURING WHICH ANY PARTICLE CANNOT MOVE MORE THAN ONE CELL
<<<<<<< Updated upstream
 = 0.1632    (WHEN MIN. R.F.=1)  AT K=   3, I=   2, J=  29

 MAXIMUM STEPSIZE WHICH MEETS STABILITY CRITERION OF THE ADVECTION TERM
 (FOR PURE FINITE-DIFFERENCE OPTION, MIXELM=0) 
 = 0.1132    (WHEN MIN. R.F.=1)  AT K=   3, I=   2, J=  28
=======
 = 0.1869    (WHEN MIN. R.F.=1)  AT K=   3, I=   2, J=  31

 MAXIMUM STEPSIZE WHICH MEETS STABILITY CRITERION OF THE ADVECTION TERM
 (FOR PURE FINITE-DIFFERENCE OPTION, MIXELM=0) 
 = 0.1248    (WHEN MIN. R.F.=1)  AT K=   3, I=   2, J=  30
>>>>>>> Stashed changes


 TOTAL NUMBER OF POINT SOURCES/SINKS PRESENT IN THE FLOW MODEL =   240

 MAXIMUM STEPSIZE WHICH MEETS STABILITY CRITERION OF THE SINK & SOURCE TERM
 = 0.1000E+31(WHEN MIN. R.F.=1)  AT K=   0, I=   0, J=   0

 MAXIMUM STEPSIZE WHICH MEETS STABILITY CRITERION OF THE DISPERSION TERM
<<<<<<< Updated upstream
 = 0.6194E-02(WHEN MIN. R.F.=1)  AT K=   3, I=   2, J=  31
     1 CALLS TO GCG PACKAGE FOR TRANSPORT TIME STEP   4 IN FLOW TIME STEP  83 STRESS PERIOD   2
    12 TOTAL ITERATIONS
=======
 = 0.6696E-02(WHEN MIN. R.F.=1)  AT K=   3, I=   2, J=  30
     1 CALLS TO GCG PACKAGE FOR TRANSPORT TIME STEP   5 IN FLOW TIME STEP  81 STRESS PERIOD   2
    13 TOTAL ITERATIONS
>>>>>>> Stashed changes
 
 SOLVING FOR HEAD 
 FLOW MODEL IS TRANSIENT
 FLOW MODEL CONTAINS CONSTANT-HEAD CELLS


 MAXIMUM STEPSIZE DURING WHICH ANY PARTICLE CANNOT MOVE MORE THAN ONE CELL
<<<<<<< Updated upstream
 = 0.1632    (WHEN MIN. R.F.=1)  AT K=   3, I=   2, J=  29

 MAXIMUM STEPSIZE WHICH MEETS STABILITY CRITERION OF THE ADVECTION TERM
 (FOR PURE FINITE-DIFFERENCE OPTION, MIXELM=0) 
 = 0.1132    (WHEN MIN. R.F.=1)  AT K=   3, I=   2, J=  28
=======
 = 0.1869    (WHEN MIN. R.F.=1)  AT K=   3, I=   2, J=  31

 MAXIMUM STEPSIZE WHICH MEETS STABILITY CRITERION OF THE ADVECTION TERM
 (FOR PURE FINITE-DIFFERENCE OPTION, MIXELM=0) 
 = 0.1248    (WHEN MIN. R.F.=1)  AT K=   3, I=   2, J=  30
>>>>>>> Stashed changes


 TOTAL NUMBER OF POINT SOURCES/SINKS PRESENT IN THE FLOW MODEL =   240

 MAXIMUM STEPSIZE WHICH MEETS STABILITY CRITERION OF THE SINK & SOURCE TERM
 = 0.1000E+31(WHEN MIN. R.F.=1)  AT K=   0, I=   0, J=   0

 MAXIMUM STEPSIZE WHICH MEETS STABILITY CRITERION OF THE DISPERSION TERM
<<<<<<< Updated upstream
 = 0.6194E-02(WHEN MIN. R.F.=1)  AT K=   3, I=   2, J=  31
     1 CALLS TO GCG PACKAGE FOR TRANSPORT TIME STEP   5 IN FLOW TIME STEP  83 STRESS PERIOD   2
    12 TOTAL ITERATIONS
=======
 = 0.6696E-02(WHEN MIN. R.F.=1)  AT K=   3, I=   2, J=  30
     1 CALLS TO GCG PACKAGE FOR TRANSPORT TIME STEP   6 IN FLOW TIME STEP  81 STRESS PERIOD   2
    14 TOTAL ITERATIONS
>>>>>>> Stashed changes
 
 SOLVING FOR HEAD 
 FLOW MODEL IS TRANSIENT
 FLOW MODEL CONTAINS CONSTANT-HEAD CELLS


 MAXIMUM STEPSIZE DURING WHICH ANY PARTICLE CANNOT MOVE MORE THAN ONE CELL
<<<<<<< Updated upstream
 = 0.1632    (WHEN MIN. R.F.=1)  AT K=   3, I=   2, J=  29

 MAXIMUM STEPSIZE WHICH MEETS STABILITY CRITERION OF THE ADVECTION TERM
 (FOR PURE FINITE-DIFFERENCE OPTION, MIXELM=0) 
 = 0.1132    (WHEN MIN. R.F.=1)  AT K=   3, I=   2, J=  28
=======
 = 0.1869    (WHEN MIN. R.F.=1)  AT K=   3, I=   2, J=  31

 MAXIMUM STEPSIZE WHICH MEETS STABILITY CRITERION OF THE ADVECTION TERM
 (FOR PURE FINITE-DIFFERENCE OPTION, MIXELM=0) 
 = 0.1248    (WHEN MIN. R.F.=1)  AT K=   3, I=   2, J=  30
>>>>>>> Stashed changes


 TOTAL NUMBER OF POINT SOURCES/SINKS PRESENT IN THE FLOW MODEL =   240

 MAXIMUM STEPSIZE WHICH MEETS STABILITY CRITERION OF THE SINK & SOURCE TERM
 = 0.1000E+31(WHEN MIN. R.F.=1)  AT K=   0, I=   0, J=   0

 MAXIMUM STEPSIZE WHICH MEETS STABILITY CRITERION OF THE DISPERSION TERM
<<<<<<< Updated upstream
 = 0.6194E-02(WHEN MIN. R.F.=1)  AT K=   3, I=   2, J=  31
     1 CALLS TO GCG PACKAGE FOR TRANSPORT TIME STEP   6 IN FLOW TIME STEP  83 STRESS PERIOD   2
    12 TOTAL ITERATIONS
=======
 = 0.6696E-02(WHEN MIN. R.F.=1)  AT K=   3, I=   2, J=  30
     1 CALLS TO GCG PACKAGE FOR TRANSPORT TIME STEP   7 IN FLOW TIME STEP  81 STRESS PERIOD   2
    13 TOTAL ITERATIONS
>>>>>>> Stashed changes
 
 SOLVING FOR HEAD 
 FLOW MODEL IS TRANSIENT
 FLOW MODEL CONTAINS CONSTANT-HEAD CELLS


 MAXIMUM STEPSIZE DURING WHICH ANY PARTICLE CANNOT MOVE MORE THAN ONE CELL
<<<<<<< Updated upstream
 = 0.1632    (WHEN MIN. R.F.=1)  AT K=   3, I=   2, J=  29

 MAXIMUM STEPSIZE WHICH MEETS STABILITY CRITERION OF THE ADVECTION TERM
 (FOR PURE FINITE-DIFFERENCE OPTION, MIXELM=0) 
 = 0.1132    (WHEN MIN. R.F.=1)  AT K=   3, I=   2, J=  28
=======
 = 0.1869    (WHEN MIN. R.F.=1)  AT K=   3, I=   2, J=  31

 MAXIMUM STEPSIZE WHICH MEETS STABILITY CRITERION OF THE ADVECTION TERM
 (FOR PURE FINITE-DIFFERENCE OPTION, MIXELM=0) 
 = 0.1248    (WHEN MIN. R.F.=1)  AT K=   3, I=   2, J=  30
>>>>>>> Stashed changes


 TOTAL NUMBER OF POINT SOURCES/SINKS PRESENT IN THE FLOW MODEL =   240

 MAXIMUM STEPSIZE WHICH MEETS STABILITY CRITERION OF THE SINK & SOURCE TERM
 = 0.1000E+31(WHEN MIN. R.F.=1)  AT K=   0, I=   0, J=   0

 MAXIMUM STEPSIZE WHICH MEETS STABILITY CRITERION OF THE DISPERSION TERM
<<<<<<< Updated upstream
 = 0.6194E-02(WHEN MIN. R.F.=1)  AT K=   3, I=   2, J=  31
     1 CALLS TO GCG PACKAGE FOR TRANSPORT TIME STEP   7 IN FLOW TIME STEP  83 STRESS PERIOD   2
    12 TOTAL ITERATIONS
=======
 = 0.6696E-02(WHEN MIN. R.F.=1)  AT K=   3, I=   2, J=  30
     1 CALLS TO GCG PACKAGE FOR TRANSPORT TIME STEP   8 IN FLOW TIME STEP  81 STRESS PERIOD   2
     5 TOTAL ITERATIONS
  MAXIMUM CONCENTRATION CHANGES FOR EACH ITERATION:
  MAX. CHANGE LAYER,ROW,COL MAX. CHANGE LAYER,ROW,COL MAX. CHANGE LAYER,ROW,COL MAX. CHANGE LAYER,ROW,COL MAX. CHANGE LAYER,ROW,COL
 ------------------------------------------------------------------------------------------------------------------------------------
   0.9743E-04 ( 14,  2, 56)  0.2654E-05 (  5,  2, 63)  0.4622E-06 (  4,  2, 56)  0.1251E-06 (  3,  2, 38)  0.4646E-07 (  4,  3, 26)
 UBDSV1 SAVING "         STORAGE" ON UNIT  53 AT TIME STEP 81, STRESS PERIOD   2
 UBDSV2 SAVING "   CONSTANT HEAD" ON UNIT  53 AT TIME STEP 81, STRESS PERIOD   2
 UBDSV1 SAVING "FLOW RIGHT FACE " ON UNIT  53 AT TIME STEP 81, STRESS PERIOD   2
 UBDSV1 SAVING "FLOW FRONT FACE " ON UNIT  53 AT TIME STEP 81, STRESS PERIOD   2
 UBDSV1 SAVING "FLOW LOWER FACE " ON UNIT  53 AT TIME STEP 81, STRESS PERIOD   2
 UBDSV1 SAVING "            DCDT" ON UNIT  53 AT TIME STEP 81, STRESS PERIOD   2

 HEAD WILL BE SAVED ON UNIT   51 AT END OF TIME STEP  81, STRESS PERIOD    2


                                          ================================================
                                                         FROM TIME =   82.000     TO    83.000    

>>>>>>> Stashed changes
 
 SOLVING FOR HEAD 
 FLOW MODEL IS TRANSIENT
 FLOW MODEL CONTAINS CONSTANT-HEAD CELLS


 MAXIMUM STEPSIZE DURING WHICH ANY PARTICLE CANNOT MOVE MORE THAN ONE CELL
<<<<<<< Updated upstream
 = 0.1632    (WHEN MIN. R.F.=1)  AT K=   3, I=   2, J=  29

 MAXIMUM STEPSIZE WHICH MEETS STABILITY CRITERION OF THE ADVECTION TERM
 (FOR PURE FINITE-DIFFERENCE OPTION, MIXELM=0) 
 = 0.1132    (WHEN MIN. R.F.=1)  AT K=   3, I=   2, J=  28
=======
 = 0.1869    (WHEN MIN. R.F.=1)  AT K=   3, I=   2, J=  31

 MAXIMUM STEPSIZE WHICH MEETS STABILITY CRITERION OF THE ADVECTION TERM
 (FOR PURE FINITE-DIFFERENCE OPTION, MIXELM=0) 
 = 0.1248    (WHEN MIN. R.F.=1)  AT K=   3, I=   2, J=  30
>>>>>>> Stashed changes


 TOTAL NUMBER OF POINT SOURCES/SINKS PRESENT IN THE FLOW MODEL =   240

 MAXIMUM STEPSIZE WHICH MEETS STABILITY CRITERION OF THE SINK & SOURCE TERM
 = 0.1000E+31(WHEN MIN. R.F.=1)  AT K=   0, I=   0, J=   0

 MAXIMUM STEPSIZE WHICH MEETS STABILITY CRITERION OF THE DISPERSION TERM
<<<<<<< Updated upstream
 = 0.6194E-02(WHEN MIN. R.F.=1)  AT K=   3, I=   2, J=  31
     1 CALLS TO GCG PACKAGE FOR TRANSPORT TIME STEP   8 IN FLOW TIME STEP  83 STRESS PERIOD   2
    12 TOTAL ITERATIONS
=======
 = 0.6696E-02(WHEN MIN. R.F.=1)  AT K=   3, I=   2, J=  30


     1 CALLS TO GCG PACKAGE FOR TRANSPORT TIME STEP   1 IN FLOW TIME STEP  82 STRESS PERIOD   2
    13 TOTAL ITERATIONS

 OUTPUT CONTROL FOR STRESS PERIOD    2   TIME STEP  82
    SAVE HEAD FOR ALL LAYERS
    SAVE BUDGET
>>>>>>> Stashed changes
 
 SOLVING FOR HEAD 
 FLOW MODEL IS TRANSIENT
 FLOW MODEL CONTAINS CONSTANT-HEAD CELLS


 MAXIMUM STEPSIZE DURING WHICH ANY PARTICLE CANNOT MOVE MORE THAN ONE CELL
<<<<<<< Updated upstream
 = 0.1632    (WHEN MIN. R.F.=1)  AT K=   3, I=   2, J=  29

 MAXIMUM STEPSIZE WHICH MEETS STABILITY CRITERION OF THE ADVECTION TERM
 (FOR PURE FINITE-DIFFERENCE OPTION, MIXELM=0) 
 = 0.1132    (WHEN MIN. R.F.=1)  AT K=   3, I=   2, J=  28
=======
 = 0.1869    (WHEN MIN. R.F.=1)  AT K=   3, I=   2, J=  31

 MAXIMUM STEPSIZE WHICH MEETS STABILITY CRITERION OF THE ADVECTION TERM
 (FOR PURE FINITE-DIFFERENCE OPTION, MIXELM=0) 
 = 0.1248    (WHEN MIN. R.F.=1)  AT K=   3, I=   2, J=  30
>>>>>>> Stashed changes


 TOTAL NUMBER OF POINT SOURCES/SINKS PRESENT IN THE FLOW MODEL =   240

 MAXIMUM STEPSIZE WHICH MEETS STABILITY CRITERION OF THE SINK & SOURCE TERM
 = 0.1000E+31(WHEN MIN. R.F.=1)  AT K=   0, I=   0, J=   0

 MAXIMUM STEPSIZE WHICH MEETS STABILITY CRITERION OF THE DISPERSION TERM
<<<<<<< Updated upstream
 = 0.6194E-02(WHEN MIN. R.F.=1)  AT K=   3, I=   2, J=  31
     1 CALLS TO GCG PACKAGE FOR TRANSPORT TIME STEP   9 IN FLOW TIME STEP  83 STRESS PERIOD   2
     4 TOTAL ITERATIONS
  MAXIMUM CONCENTRATION CHANGES FOR EACH ITERATION:
  MAX. CHANGE LAYER,ROW,COL MAX. CHANGE LAYER,ROW,COL MAX. CHANGE LAYER,ROW,COL MAX. CHANGE LAYER,ROW,COL MAX. CHANGE LAYER,ROW,COL
 ------------------------------------------------------------------------------------------------------------------------------------
   0.1297E-03 ( 14,  3, 53)  0.4150E-05 (  5,  2, 64)  0.7435E-06 (  6,  1, 56)  0.8366E-07 (  4,  2, 46)


                                          ================================================
                                                         FROM TIME =   84.000     TO    85.000    

=======
 = 0.6696E-02(WHEN MIN. R.F.=1)  AT K=   3, I=   2, J=  30
     1 CALLS TO GCG PACKAGE FOR TRANSPORT TIME STEP   2 IN FLOW TIME STEP  82 STRESS PERIOD   2
    14 TOTAL ITERATIONS
>>>>>>> Stashed changes
 
 SOLVING FOR HEAD 
 FLOW MODEL IS TRANSIENT
 FLOW MODEL CONTAINS CONSTANT-HEAD CELLS


 MAXIMUM STEPSIZE DURING WHICH ANY PARTICLE CANNOT MOVE MORE THAN ONE CELL
<<<<<<< Updated upstream
 = 0.1632    (WHEN MIN. R.F.=1)  AT K=   3, I=   2, J=  29

 MAXIMUM STEPSIZE WHICH MEETS STABILITY CRITERION OF THE ADVECTION TERM
 (FOR PURE FINITE-DIFFERENCE OPTION, MIXELM=0) 
 = 0.1132    (WHEN MIN. R.F.=1)  AT K=   3, I=   2, J=  28
=======
 = 0.1869    (WHEN MIN. R.F.=1)  AT K=   3, I=   2, J=  31

 MAXIMUM STEPSIZE WHICH MEETS STABILITY CRITERION OF THE ADVECTION TERM
 (FOR PURE FINITE-DIFFERENCE OPTION, MIXELM=0) 
 = 0.1248    (WHEN MIN. R.F.=1)  AT K=   3, I=   2, J=  30
>>>>>>> Stashed changes


 TOTAL NUMBER OF POINT SOURCES/SINKS PRESENT IN THE FLOW MODEL =   240

 MAXIMUM STEPSIZE WHICH MEETS STABILITY CRITERION OF THE SINK & SOURCE TERM
 = 0.1000E+31(WHEN MIN. R.F.=1)  AT K=   0, I=   0, J=   0

 MAXIMUM STEPSIZE WHICH MEETS STABILITY CRITERION OF THE DISPERSION TERM
<<<<<<< Updated upstream
 = 0.6194E-02(WHEN MIN. R.F.=1)  AT K=   3, I=   2, J=  31


     1 CALLS TO GCG PACKAGE FOR TRANSPORT TIME STEP   1 IN FLOW TIME STEP  84 STRESS PERIOD   2
    12 TOTAL ITERATIONS

 NO OUTPUT CONTROL FOR STRESS PERIOD    2   TIME STEP  84
=======
 = 0.6696E-02(WHEN MIN. R.F.=1)  AT K=   3, I=   2, J=  30
     1 CALLS TO GCG PACKAGE FOR TRANSPORT TIME STEP   3 IN FLOW TIME STEP  82 STRESS PERIOD   2
    13 TOTAL ITERATIONS
>>>>>>> Stashed changes
 
 SOLVING FOR HEAD 
 FLOW MODEL IS TRANSIENT
 FLOW MODEL CONTAINS CONSTANT-HEAD CELLS


 MAXIMUM STEPSIZE DURING WHICH ANY PARTICLE CANNOT MOVE MORE THAN ONE CELL
<<<<<<< Updated upstream
 = 0.1632    (WHEN MIN. R.F.=1)  AT K=   3, I=   2, J=  29

 MAXIMUM STEPSIZE WHICH MEETS STABILITY CRITERION OF THE ADVECTION TERM
 (FOR PURE FINITE-DIFFERENCE OPTION, MIXELM=0) 
 = 0.1132    (WHEN MIN. R.F.=1)  AT K=   3, I=   2, J=  28
=======
 = 0.1869    (WHEN MIN. R.F.=1)  AT K=   3, I=   2, J=  31

 MAXIMUM STEPSIZE WHICH MEETS STABILITY CRITERION OF THE ADVECTION TERM
 (FOR PURE FINITE-DIFFERENCE OPTION, MIXELM=0) 
 = 0.1248    (WHEN MIN. R.F.=1)  AT K=   3, I=   2, J=  30
>>>>>>> Stashed changes


 TOTAL NUMBER OF POINT SOURCES/SINKS PRESENT IN THE FLOW MODEL =   240

 MAXIMUM STEPSIZE WHICH MEETS STABILITY CRITERION OF THE SINK & SOURCE TERM
 = 0.1000E+31(WHEN MIN. R.F.=1)  AT K=   0, I=   0, J=   0

 MAXIMUM STEPSIZE WHICH MEETS STABILITY CRITERION OF THE DISPERSION TERM
<<<<<<< Updated upstream
 = 0.6194E-02(WHEN MIN. R.F.=1)  AT K=   3, I=   2, J=  31
     1 CALLS TO GCG PACKAGE FOR TRANSPORT TIME STEP   2 IN FLOW TIME STEP  84 STRESS PERIOD   2
    12 TOTAL ITERATIONS
=======
 = 0.6696E-02(WHEN MIN. R.F.=1)  AT K=   3, I=   2, J=  30
     1 CALLS TO GCG PACKAGE FOR TRANSPORT TIME STEP   4 IN FLOW TIME STEP  82 STRESS PERIOD   2
    13 TOTAL ITERATIONS
>>>>>>> Stashed changes
 
 SOLVING FOR HEAD 
 FLOW MODEL IS TRANSIENT
 FLOW MODEL CONTAINS CONSTANT-HEAD CELLS


 MAXIMUM STEPSIZE DURING WHICH ANY PARTICLE CANNOT MOVE MORE THAN ONE CELL
<<<<<<< Updated upstream
 = 0.1632    (WHEN MIN. R.F.=1)  AT K=   3, I=   2, J=  29

 MAXIMUM STEPSIZE WHICH MEETS STABILITY CRITERION OF THE ADVECTION TERM
 (FOR PURE FINITE-DIFFERENCE OPTION, MIXELM=0) 
 = 0.1132    (WHEN MIN. R.F.=1)  AT K=   3, I=   2, J=  28
=======
 = 0.1869    (WHEN MIN. R.F.=1)  AT K=   3, I=   2, J=  31

 MAXIMUM STEPSIZE WHICH MEETS STABILITY CRITERION OF THE ADVECTION TERM
 (FOR PURE FINITE-DIFFERENCE OPTION, MIXELM=0) 
 = 0.1248    (WHEN MIN. R.F.=1)  AT K=   3, I=   2, J=  30
>>>>>>> Stashed changes


 TOTAL NUMBER OF POINT SOURCES/SINKS PRESENT IN THE FLOW MODEL =   240

 MAXIMUM STEPSIZE WHICH MEETS STABILITY CRITERION OF THE SINK & SOURCE TERM
 = 0.1000E+31(WHEN MIN. R.F.=1)  AT K=   0, I=   0, J=   0

 MAXIMUM STEPSIZE WHICH MEETS STABILITY CRITERION OF THE DISPERSION TERM
<<<<<<< Updated upstream
 = 0.6194E-02(WHEN MIN. R.F.=1)  AT K=   3, I=   2, J=  31
     1 CALLS TO GCG PACKAGE FOR TRANSPORT TIME STEP   3 IN FLOW TIME STEP  84 STRESS PERIOD   2
    12 TOTAL ITERATIONS
=======
 = 0.6696E-02(WHEN MIN. R.F.=1)  AT K=   3, I=   2, J=  30
     1 CALLS TO GCG PACKAGE FOR TRANSPORT TIME STEP   5 IN FLOW TIME STEP  82 STRESS PERIOD   2
    13 TOTAL ITERATIONS
>>>>>>> Stashed changes
 
 SOLVING FOR HEAD 
 FLOW MODEL IS TRANSIENT
 FLOW MODEL CONTAINS CONSTANT-HEAD CELLS


 MAXIMUM STEPSIZE DURING WHICH ANY PARTICLE CANNOT MOVE MORE THAN ONE CELL
<<<<<<< Updated upstream
 = 0.1632    (WHEN MIN. R.F.=1)  AT K=   3, I=   2, J=  29

 MAXIMUM STEPSIZE WHICH MEETS STABILITY CRITERION OF THE ADVECTION TERM
 (FOR PURE FINITE-DIFFERENCE OPTION, MIXELM=0) 
 = 0.1132    (WHEN MIN. R.F.=1)  AT K=   3, I=   2, J=  28
=======
 = 0.1869    (WHEN MIN. R.F.=1)  AT K=   3, I=   2, J=  31

 MAXIMUM STEPSIZE WHICH MEETS STABILITY CRITERION OF THE ADVECTION TERM
 (FOR PURE FINITE-DIFFERENCE OPTION, MIXELM=0) 
 = 0.1248    (WHEN MIN. R.F.=1)  AT K=   3, I=   2, J=  30
>>>>>>> Stashed changes


 TOTAL NUMBER OF POINT SOURCES/SINKS PRESENT IN THE FLOW MODEL =   240

 MAXIMUM STEPSIZE WHICH MEETS STABILITY CRITERION OF THE SINK & SOURCE TERM
 = 0.1000E+31(WHEN MIN. R.F.=1)  AT K=   0, I=   0, J=   0

 MAXIMUM STEPSIZE WHICH MEETS STABILITY CRITERION OF THE DISPERSION TERM
<<<<<<< Updated upstream
 = 0.6194E-02(WHEN MIN. R.F.=1)  AT K=   3, I=   2, J=  31
     1 CALLS TO GCG PACKAGE FOR TRANSPORT TIME STEP   4 IN FLOW TIME STEP  84 STRESS PERIOD   2
    12 TOTAL ITERATIONS
=======
 = 0.6696E-02(WHEN MIN. R.F.=1)  AT K=   3, I=   2, J=  30
     1 CALLS TO GCG PACKAGE FOR TRANSPORT TIME STEP   6 IN FLOW TIME STEP  82 STRESS PERIOD   2
    14 TOTAL ITERATIONS
>>>>>>> Stashed changes
 
 SOLVING FOR HEAD 
 FLOW MODEL IS TRANSIENT
 FLOW MODEL CONTAINS CONSTANT-HEAD CELLS


 MAXIMUM STEPSIZE DURING WHICH ANY PARTICLE CANNOT MOVE MORE THAN ONE CELL
<<<<<<< Updated upstream
 = 0.1632    (WHEN MIN. R.F.=1)  AT K=   3, I=   2, J=  29

 MAXIMUM STEPSIZE WHICH MEETS STABILITY CRITERION OF THE ADVECTION TERM
 (FOR PURE FINITE-DIFFERENCE OPTION, MIXELM=0) 
 = 0.1132    (WHEN MIN. R.F.=1)  AT K=   3, I=   2, J=  28
=======
 = 0.1869    (WHEN MIN. R.F.=1)  AT K=   3, I=   2, J=  31

 MAXIMUM STEPSIZE WHICH MEETS STABILITY CRITERION OF THE ADVECTION TERM
 (FOR PURE FINITE-DIFFERENCE OPTION, MIXELM=0) 
 = 0.1248    (WHEN MIN. R.F.=1)  AT K=   3, I=   2, J=  30
>>>>>>> Stashed changes


 TOTAL NUMBER OF POINT SOURCES/SINKS PRESENT IN THE FLOW MODEL =   240

 MAXIMUM STEPSIZE WHICH MEETS STABILITY CRITERION OF THE SINK & SOURCE TERM
 = 0.1000E+31(WHEN MIN. R.F.=1)  AT K=   0, I=   0, J=   0

 MAXIMUM STEPSIZE WHICH MEETS STABILITY CRITERION OF THE DISPERSION TERM
<<<<<<< Updated upstream
 = 0.6194E-02(WHEN MIN. R.F.=1)  AT K=   3, I=   2, J=  31
     1 CALLS TO GCG PACKAGE FOR TRANSPORT TIME STEP   5 IN FLOW TIME STEP  84 STRESS PERIOD   2
    12 TOTAL ITERATIONS
=======
 = 0.6696E-02(WHEN MIN. R.F.=1)  AT K=   3, I=   2, J=  30
     1 CALLS TO GCG PACKAGE FOR TRANSPORT TIME STEP   7 IN FLOW TIME STEP  82 STRESS PERIOD   2
    13 TOTAL ITERATIONS
>>>>>>> Stashed changes
 
 SOLVING FOR HEAD 
 FLOW MODEL IS TRANSIENT
 FLOW MODEL CONTAINS CONSTANT-HEAD CELLS


 MAXIMUM STEPSIZE DURING WHICH ANY PARTICLE CANNOT MOVE MORE THAN ONE CELL
<<<<<<< Updated upstream
 = 0.1632    (WHEN MIN. R.F.=1)  AT K=   3, I=   2, J=  29

 MAXIMUM STEPSIZE WHICH MEETS STABILITY CRITERION OF THE ADVECTION TERM
 (FOR PURE FINITE-DIFFERENCE OPTION, MIXELM=0) 
 = 0.1132    (WHEN MIN. R.F.=1)  AT K=   3, I=   2, J=  28
=======
 = 0.1869    (WHEN MIN. R.F.=1)  AT K=   3, I=   2, J=  31

 MAXIMUM STEPSIZE WHICH MEETS STABILITY CRITERION OF THE ADVECTION TERM
 (FOR PURE FINITE-DIFFERENCE OPTION, MIXELM=0) 
 = 0.1248    (WHEN MIN. R.F.=1)  AT K=   3, I=   2, J=  30
>>>>>>> Stashed changes


 TOTAL NUMBER OF POINT SOURCES/SINKS PRESENT IN THE FLOW MODEL =   240

 MAXIMUM STEPSIZE WHICH MEETS STABILITY CRITERION OF THE SINK & SOURCE TERM
 = 0.1000E+31(WHEN MIN. R.F.=1)  AT K=   0, I=   0, J=   0

 MAXIMUM STEPSIZE WHICH MEETS STABILITY CRITERION OF THE DISPERSION TERM
<<<<<<< Updated upstream
 = 0.6194E-02(WHEN MIN. R.F.=1)  AT K=   3, I=   2, J=  31
     1 CALLS TO GCG PACKAGE FOR TRANSPORT TIME STEP   6 IN FLOW TIME STEP  84 STRESS PERIOD   2
    12 TOTAL ITERATIONS
=======
 = 0.6696E-02(WHEN MIN. R.F.=1)  AT K=   3, I=   2, J=  30
     1 CALLS TO GCG PACKAGE FOR TRANSPORT TIME STEP   8 IN FLOW TIME STEP  82 STRESS PERIOD   2
     5 TOTAL ITERATIONS
  MAXIMUM CONCENTRATION CHANGES FOR EACH ITERATION:
  MAX. CHANGE LAYER,ROW,COL MAX. CHANGE LAYER,ROW,COL MAX. CHANGE LAYER,ROW,COL MAX. CHANGE LAYER,ROW,COL MAX. CHANGE LAYER,ROW,COL
 ------------------------------------------------------------------------------------------------------------------------------------
   0.9630E-04 ( 14,  2, 56)  0.2590E-05 (  5,  2, 63)  0.4495E-06 (  4,  2, 56)  0.1155E-06 (  3,  2, 44)  0.4224E-07 (  3,  2, 30)
 UBDSV1 SAVING "         STORAGE" ON UNIT  53 AT TIME STEP 82, STRESS PERIOD   2
 UBDSV2 SAVING "   CONSTANT HEAD" ON UNIT  53 AT TIME STEP 82, STRESS PERIOD   2
 UBDSV1 SAVING "FLOW RIGHT FACE " ON UNIT  53 AT TIME STEP 82, STRESS PERIOD   2
 UBDSV1 SAVING "FLOW FRONT FACE " ON UNIT  53 AT TIME STEP 82, STRESS PERIOD   2
 UBDSV1 SAVING "FLOW LOWER FACE " ON UNIT  53 AT TIME STEP 82, STRESS PERIOD   2
 UBDSV1 SAVING "            DCDT" ON UNIT  53 AT TIME STEP 82, STRESS PERIOD   2

 HEAD WILL BE SAVED ON UNIT   51 AT END OF TIME STEP  82, STRESS PERIOD    2


                                          ================================================
                                                         FROM TIME =   83.000     TO    84.000    

>>>>>>> Stashed changes
 
 SOLVING FOR HEAD 
 FLOW MODEL IS TRANSIENT
 FLOW MODEL CONTAINS CONSTANT-HEAD CELLS


 MAXIMUM STEPSIZE DURING WHICH ANY PARTICLE CANNOT MOVE MORE THAN ONE CELL
<<<<<<< Updated upstream
 = 0.1632    (WHEN MIN. R.F.=1)  AT K=   3, I=   2, J=  29

 MAXIMUM STEPSIZE WHICH MEETS STABILITY CRITERION OF THE ADVECTION TERM
 (FOR PURE FINITE-DIFFERENCE OPTION, MIXELM=0) 
 = 0.1132    (WHEN MIN. R.F.=1)  AT K=   3, I=   2, J=  28
=======
 = 0.1869    (WHEN MIN. R.F.=1)  AT K=   3, I=   2, J=  31

 MAXIMUM STEPSIZE WHICH MEETS STABILITY CRITERION OF THE ADVECTION TERM
 (FOR PURE FINITE-DIFFERENCE OPTION, MIXELM=0) 
 = 0.1248    (WHEN MIN. R.F.=1)  AT K=   3, I=   2, J=  30
>>>>>>> Stashed changes


 TOTAL NUMBER OF POINT SOURCES/SINKS PRESENT IN THE FLOW MODEL =   240

 MAXIMUM STEPSIZE WHICH MEETS STABILITY CRITERION OF THE SINK & SOURCE TERM
 = 0.1000E+31(WHEN MIN. R.F.=1)  AT K=   0, I=   0, J=   0

 MAXIMUM STEPSIZE WHICH MEETS STABILITY CRITERION OF THE DISPERSION TERM
<<<<<<< Updated upstream
 = 0.6194E-02(WHEN MIN. R.F.=1)  AT K=   3, I=   2, J=  31
     1 CALLS TO GCG PACKAGE FOR TRANSPORT TIME STEP   7 IN FLOW TIME STEP  84 STRESS PERIOD   2
    12 TOTAL ITERATIONS
=======
 = 0.6696E-02(WHEN MIN. R.F.=1)  AT K=   3, I=   2, J=  30


     1 CALLS TO GCG PACKAGE FOR TRANSPORT TIME STEP   1 IN FLOW TIME STEP  83 STRESS PERIOD   2
    13 TOTAL ITERATIONS

 OUTPUT CONTROL FOR STRESS PERIOD    2   TIME STEP  83
    SAVE HEAD FOR ALL LAYERS
    SAVE BUDGET
>>>>>>> Stashed changes
 
 SOLVING FOR HEAD 
 FLOW MODEL IS TRANSIENT
 FLOW MODEL CONTAINS CONSTANT-HEAD CELLS


 MAXIMUM STEPSIZE DURING WHICH ANY PARTICLE CANNOT MOVE MORE THAN ONE CELL
<<<<<<< Updated upstream
 = 0.1632    (WHEN MIN. R.F.=1)  AT K=   3, I=   2, J=  29

 MAXIMUM STEPSIZE WHICH MEETS STABILITY CRITERION OF THE ADVECTION TERM
 (FOR PURE FINITE-DIFFERENCE OPTION, MIXELM=0) 
 = 0.1132    (WHEN MIN. R.F.=1)  AT K=   3, I=   2, J=  28
=======
 = 0.1869    (WHEN MIN. R.F.=1)  AT K=   3, I=   2, J=  31

 MAXIMUM STEPSIZE WHICH MEETS STABILITY CRITERION OF THE ADVECTION TERM
 (FOR PURE FINITE-DIFFERENCE OPTION, MIXELM=0) 
 = 0.1248    (WHEN MIN. R.F.=1)  AT K=   3, I=   2, J=  30
>>>>>>> Stashed changes


 TOTAL NUMBER OF POINT SOURCES/SINKS PRESENT IN THE FLOW MODEL =   240

 MAXIMUM STEPSIZE WHICH MEETS STABILITY CRITERION OF THE SINK & SOURCE TERM
 = 0.1000E+31(WHEN MIN. R.F.=1)  AT K=   0, I=   0, J=   0

 MAXIMUM STEPSIZE WHICH MEETS STABILITY CRITERION OF THE DISPERSION TERM
<<<<<<< Updated upstream
 = 0.6194E-02(WHEN MIN. R.F.=1)  AT K=   3, I=   2, J=  31
     1 CALLS TO GCG PACKAGE FOR TRANSPORT TIME STEP   8 IN FLOW TIME STEP  84 STRESS PERIOD   2
    12 TOTAL ITERATIONS
=======
 = 0.6696E-02(WHEN MIN. R.F.=1)  AT K=   3, I=   2, J=  30
     1 CALLS TO GCG PACKAGE FOR TRANSPORT TIME STEP   2 IN FLOW TIME STEP  83 STRESS PERIOD   2
    14 TOTAL ITERATIONS
>>>>>>> Stashed changes
 
 SOLVING FOR HEAD 
 FLOW MODEL IS TRANSIENT
 FLOW MODEL CONTAINS CONSTANT-HEAD CELLS


 MAXIMUM STEPSIZE DURING WHICH ANY PARTICLE CANNOT MOVE MORE THAN ONE CELL
<<<<<<< Updated upstream
 = 0.1632    (WHEN MIN. R.F.=1)  AT K=   3, I=   2, J=  29

 MAXIMUM STEPSIZE WHICH MEETS STABILITY CRITERION OF THE ADVECTION TERM
 (FOR PURE FINITE-DIFFERENCE OPTION, MIXELM=0) 
 = 0.1132    (WHEN MIN. R.F.=1)  AT K=   3, I=   2, J=  28
=======
 = 0.1869    (WHEN MIN. R.F.=1)  AT K=   3, I=   2, J=  31

 MAXIMUM STEPSIZE WHICH MEETS STABILITY CRITERION OF THE ADVECTION TERM
 (FOR PURE FINITE-DIFFERENCE OPTION, MIXELM=0) 
 = 0.1248    (WHEN MIN. R.F.=1)  AT K=   3, I=   2, J=  30
>>>>>>> Stashed changes


 TOTAL NUMBER OF POINT SOURCES/SINKS PRESENT IN THE FLOW MODEL =   240

 MAXIMUM STEPSIZE WHICH MEETS STABILITY CRITERION OF THE SINK & SOURCE TERM
 = 0.1000E+31(WHEN MIN. R.F.=1)  AT K=   0, I=   0, J=   0

 MAXIMUM STEPSIZE WHICH MEETS STABILITY CRITERION OF THE DISPERSION TERM
<<<<<<< Updated upstream
 = 0.6194E-02(WHEN MIN. R.F.=1)  AT K=   3, I=   2, J=  31
     1 CALLS TO GCG PACKAGE FOR TRANSPORT TIME STEP   9 IN FLOW TIME STEP  84 STRESS PERIOD   2
     4 TOTAL ITERATIONS
  MAXIMUM CONCENTRATION CHANGES FOR EACH ITERATION:
  MAX. CHANGE LAYER,ROW,COL MAX. CHANGE LAYER,ROW,COL MAX. CHANGE LAYER,ROW,COL MAX. CHANGE LAYER,ROW,COL MAX. CHANGE LAYER,ROW,COL
 ------------------------------------------------------------------------------------------------------------------------------------
   0.1288E-03 ( 14,  3, 53)  0.4054E-05 (  5,  2, 64)  0.7228E-06 (  6,  1, 56)  0.8072E-07 (  6,  1, 53)


                                          ================================================
                                                         FROM TIME =   85.000     TO    86.000    

=======
 = 0.6696E-02(WHEN MIN. R.F.=1)  AT K=   3, I=   2, J=  30
     1 CALLS TO GCG PACKAGE FOR TRANSPORT TIME STEP   3 IN FLOW TIME STEP  83 STRESS PERIOD   2
    13 TOTAL ITERATIONS
>>>>>>> Stashed changes
 
 SOLVING FOR HEAD 
 FLOW MODEL IS TRANSIENT
 FLOW MODEL CONTAINS CONSTANT-HEAD CELLS


 MAXIMUM STEPSIZE DURING WHICH ANY PARTICLE CANNOT MOVE MORE THAN ONE CELL
<<<<<<< Updated upstream
 = 0.1632    (WHEN MIN. R.F.=1)  AT K=   3, I=   2, J=  29

 MAXIMUM STEPSIZE WHICH MEETS STABILITY CRITERION OF THE ADVECTION TERM
 (FOR PURE FINITE-DIFFERENCE OPTION, MIXELM=0) 
 = 0.1132    (WHEN MIN. R.F.=1)  AT K=   3, I=   2, J=  28
=======
 = 0.1869    (WHEN MIN. R.F.=1)  AT K=   3, I=   2, J=  31

 MAXIMUM STEPSIZE WHICH MEETS STABILITY CRITERION OF THE ADVECTION TERM
 (FOR PURE FINITE-DIFFERENCE OPTION, MIXELM=0) 
 = 0.1248    (WHEN MIN. R.F.=1)  AT K=   3, I=   2, J=  30
>>>>>>> Stashed changes


 TOTAL NUMBER OF POINT SOURCES/SINKS PRESENT IN THE FLOW MODEL =   240

 MAXIMUM STEPSIZE WHICH MEETS STABILITY CRITERION OF THE SINK & SOURCE TERM
 = 0.1000E+31(WHEN MIN. R.F.=1)  AT K=   0, I=   0, J=   0

 MAXIMUM STEPSIZE WHICH MEETS STABILITY CRITERION OF THE DISPERSION TERM
<<<<<<< Updated upstream
 = 0.6194E-02(WHEN MIN. R.F.=1)  AT K=   3, I=   2, J=  31


     1 CALLS TO GCG PACKAGE FOR TRANSPORT TIME STEP   1 IN FLOW TIME STEP  85 STRESS PERIOD   2
    12 TOTAL ITERATIONS

 NO OUTPUT CONTROL FOR STRESS PERIOD    2   TIME STEP  85
=======
 = 0.6696E-02(WHEN MIN. R.F.=1)  AT K=   3, I=   2, J=  30
     1 CALLS TO GCG PACKAGE FOR TRANSPORT TIME STEP   4 IN FLOW TIME STEP  83 STRESS PERIOD   2
    14 TOTAL ITERATIONS
>>>>>>> Stashed changes
 
 SOLVING FOR HEAD 
 FLOW MODEL IS TRANSIENT
 FLOW MODEL CONTAINS CONSTANT-HEAD CELLS


 MAXIMUM STEPSIZE DURING WHICH ANY PARTICLE CANNOT MOVE MORE THAN ONE CELL
<<<<<<< Updated upstream
 = 0.1632    (WHEN MIN. R.F.=1)  AT K=   3, I=   2, J=  29

 MAXIMUM STEPSIZE WHICH MEETS STABILITY CRITERION OF THE ADVECTION TERM
 (FOR PURE FINITE-DIFFERENCE OPTION, MIXELM=0) 
 = 0.1132    (WHEN MIN. R.F.=1)  AT K=   3, I=   2, J=  28
=======
 = 0.1869    (WHEN MIN. R.F.=1)  AT K=   3, I=   2, J=  31

 MAXIMUM STEPSIZE WHICH MEETS STABILITY CRITERION OF THE ADVECTION TERM
 (FOR PURE FINITE-DIFFERENCE OPTION, MIXELM=0) 
 = 0.1248    (WHEN MIN. R.F.=1)  AT K=   3, I=   2, J=  30
>>>>>>> Stashed changes


 TOTAL NUMBER OF POINT SOURCES/SINKS PRESENT IN THE FLOW MODEL =   240

 MAXIMUM STEPSIZE WHICH MEETS STABILITY CRITERION OF THE SINK & SOURCE TERM
 = 0.1000E+31(WHEN MIN. R.F.=1)  AT K=   0, I=   0, J=   0

 MAXIMUM STEPSIZE WHICH MEETS STABILITY CRITERION OF THE DISPERSION TERM
<<<<<<< Updated upstream
 = 0.6194E-02(WHEN MIN. R.F.=1)  AT K=   3, I=   2, J=  31
     1 CALLS TO GCG PACKAGE FOR TRANSPORT TIME STEP   2 IN FLOW TIME STEP  85 STRESS PERIOD   2
    12 TOTAL ITERATIONS
=======
 = 0.6696E-02(WHEN MIN. R.F.=1)  AT K=   3, I=   2, J=  30
     1 CALLS TO GCG PACKAGE FOR TRANSPORT TIME STEP   5 IN FLOW TIME STEP  83 STRESS PERIOD   2
    13 TOTAL ITERATIONS
>>>>>>> Stashed changes
 
 SOLVING FOR HEAD 
 FLOW MODEL IS TRANSIENT
 FLOW MODEL CONTAINS CONSTANT-HEAD CELLS


 MAXIMUM STEPSIZE DURING WHICH ANY PARTICLE CANNOT MOVE MORE THAN ONE CELL
<<<<<<< Updated upstream
 = 0.1632    (WHEN MIN. R.F.=1)  AT K=   3, I=   2, J=  29

 MAXIMUM STEPSIZE WHICH MEETS STABILITY CRITERION OF THE ADVECTION TERM
 (FOR PURE FINITE-DIFFERENCE OPTION, MIXELM=0) 
 = 0.1132    (WHEN MIN. R.F.=1)  AT K=   3, I=   2, J=  28
=======
 = 0.1869    (WHEN MIN. R.F.=1)  AT K=   3, I=   2, J=  31

 MAXIMUM STEPSIZE WHICH MEETS STABILITY CRITERION OF THE ADVECTION TERM
 (FOR PURE FINITE-DIFFERENCE OPTION, MIXELM=0) 
 = 0.1248    (WHEN MIN. R.F.=1)  AT K=   3, I=   2, J=  30
>>>>>>> Stashed changes


 TOTAL NUMBER OF POINT SOURCES/SINKS PRESENT IN THE FLOW MODEL =   240

 MAXIMUM STEPSIZE WHICH MEETS STABILITY CRITERION OF THE SINK & SOURCE TERM
 = 0.1000E+31(WHEN MIN. R.F.=1)  AT K=   0, I=   0, J=   0

 MAXIMUM STEPSIZE WHICH MEETS STABILITY CRITERION OF THE DISPERSION TERM
<<<<<<< Updated upstream
 = 0.6194E-02(WHEN MIN. R.F.=1)  AT K=   3, I=   2, J=  31
     1 CALLS TO GCG PACKAGE FOR TRANSPORT TIME STEP   3 IN FLOW TIME STEP  85 STRESS PERIOD   2
    12 TOTAL ITERATIONS
=======
 = 0.6696E-02(WHEN MIN. R.F.=1)  AT K=   3, I=   2, J=  30
     1 CALLS TO GCG PACKAGE FOR TRANSPORT TIME STEP   6 IN FLOW TIME STEP  83 STRESS PERIOD   2
    13 TOTAL ITERATIONS
>>>>>>> Stashed changes
 
 SOLVING FOR HEAD 
 FLOW MODEL IS TRANSIENT
 FLOW MODEL CONTAINS CONSTANT-HEAD CELLS


 MAXIMUM STEPSIZE DURING WHICH ANY PARTICLE CANNOT MOVE MORE THAN ONE CELL
<<<<<<< Updated upstream
 = 0.1632    (WHEN MIN. R.F.=1)  AT K=   3, I=   2, J=  29

 MAXIMUM STEPSIZE WHICH MEETS STABILITY CRITERION OF THE ADVECTION TERM
 (FOR PURE FINITE-DIFFERENCE OPTION, MIXELM=0) 
 = 0.1132    (WHEN MIN. R.F.=1)  AT K=   3, I=   2, J=  28
=======
 = 0.1869    (WHEN MIN. R.F.=1)  AT K=   3, I=   2, J=  31

 MAXIMUM STEPSIZE WHICH MEETS STABILITY CRITERION OF THE ADVECTION TERM
 (FOR PURE FINITE-DIFFERENCE OPTION, MIXELM=0) 
 = 0.1248    (WHEN MIN. R.F.=1)  AT K=   3, I=   2, J=  30
>>>>>>> Stashed changes


 TOTAL NUMBER OF POINT SOURCES/SINKS PRESENT IN THE FLOW MODEL =   240

 MAXIMUM STEPSIZE WHICH MEETS STABILITY CRITERION OF THE SINK & SOURCE TERM
 = 0.1000E+31(WHEN MIN. R.F.=1)  AT K=   0, I=   0, J=   0

 MAXIMUM STEPSIZE WHICH MEETS STABILITY CRITERION OF THE DISPERSION TERM
<<<<<<< Updated upstream
 = 0.6194E-02(WHEN MIN. R.F.=1)  AT K=   3, I=   2, J=  31
     1 CALLS TO GCG PACKAGE FOR TRANSPORT TIME STEP   4 IN FLOW TIME STEP  85 STRESS PERIOD   2
    12 TOTAL ITERATIONS
=======
 = 0.6696E-02(WHEN MIN. R.F.=1)  AT K=   3, I=   2, J=  30
     1 CALLS TO GCG PACKAGE FOR TRANSPORT TIME STEP   7 IN FLOW TIME STEP  83 STRESS PERIOD   2
    14 TOTAL ITERATIONS
>>>>>>> Stashed changes
 
 SOLVING FOR HEAD 
 FLOW MODEL IS TRANSIENT
 FLOW MODEL CONTAINS CONSTANT-HEAD CELLS


 MAXIMUM STEPSIZE DURING WHICH ANY PARTICLE CANNOT MOVE MORE THAN ONE CELL
<<<<<<< Updated upstream
 = 0.1632    (WHEN MIN. R.F.=1)  AT K=   3, I=   2, J=  29

 MAXIMUM STEPSIZE WHICH MEETS STABILITY CRITERION OF THE ADVECTION TERM
 (FOR PURE FINITE-DIFFERENCE OPTION, MIXELM=0) 
 = 0.1132    (WHEN MIN. R.F.=1)  AT K=   3, I=   2, J=  28
=======
 = 0.1869    (WHEN MIN. R.F.=1)  AT K=   3, I=   2, J=  31

 MAXIMUM STEPSIZE WHICH MEETS STABILITY CRITERION OF THE ADVECTION TERM
 (FOR PURE FINITE-DIFFERENCE OPTION, MIXELM=0) 
 = 0.1248    (WHEN MIN. R.F.=1)  AT K=   3, I=   2, J=  30
>>>>>>> Stashed changes


 TOTAL NUMBER OF POINT SOURCES/SINKS PRESENT IN THE FLOW MODEL =   240

 MAXIMUM STEPSIZE WHICH MEETS STABILITY CRITERION OF THE SINK & SOURCE TERM
 = 0.1000E+31(WHEN MIN. R.F.=1)  AT K=   0, I=   0, J=   0

 MAXIMUM STEPSIZE WHICH MEETS STABILITY CRITERION OF THE DISPERSION TERM
<<<<<<< Updated upstream
 = 0.6194E-02(WHEN MIN. R.F.=1)  AT K=   3, I=   2, J=  31
     1 CALLS TO GCG PACKAGE FOR TRANSPORT TIME STEP   5 IN FLOW TIME STEP  85 STRESS PERIOD   2
    12 TOTAL ITERATIONS
=======
 = 0.6696E-02(WHEN MIN. R.F.=1)  AT K=   3, I=   2, J=  30
     1 CALLS TO GCG PACKAGE FOR TRANSPORT TIME STEP   8 IN FLOW TIME STEP  83 STRESS PERIOD   2
     5 TOTAL ITERATIONS
  MAXIMUM CONCENTRATION CHANGES FOR EACH ITERATION:
  MAX. CHANGE LAYER,ROW,COL MAX. CHANGE LAYER,ROW,COL MAX. CHANGE LAYER,ROW,COL MAX. CHANGE LAYER,ROW,COL MAX. CHANGE LAYER,ROW,COL
 ------------------------------------------------------------------------------------------------------------------------------------
   0.9519E-04 ( 14,  2, 56)  0.2528E-05 (  5,  2, 63)  0.4377E-06 (  4,  2, 56)  0.1127E-06 (  3,  2, 44)  0.4401E-07 (  4,  2, 37)
 UBDSV1 SAVING "         STORAGE" ON UNIT  53 AT TIME STEP 83, STRESS PERIOD   2
 UBDSV2 SAVING "   CONSTANT HEAD" ON UNIT  53 AT TIME STEP 83, STRESS PERIOD   2
 UBDSV1 SAVING "FLOW RIGHT FACE " ON UNIT  53 AT TIME STEP 83, STRESS PERIOD   2
 UBDSV1 SAVING "FLOW FRONT FACE " ON UNIT  53 AT TIME STEP 83, STRESS PERIOD   2
 UBDSV1 SAVING "FLOW LOWER FACE " ON UNIT  53 AT TIME STEP 83, STRESS PERIOD   2
 UBDSV1 SAVING "            DCDT" ON UNIT  53 AT TIME STEP 83, STRESS PERIOD   2

 HEAD WILL BE SAVED ON UNIT   51 AT END OF TIME STEP  83, STRESS PERIOD    2


                                          ================================================
                                                         FROM TIME =   84.000     TO    85.000    

>>>>>>> Stashed changes
 
 SOLVING FOR HEAD 
 FLOW MODEL IS TRANSIENT
 FLOW MODEL CONTAINS CONSTANT-HEAD CELLS


 MAXIMUM STEPSIZE DURING WHICH ANY PARTICLE CANNOT MOVE MORE THAN ONE CELL
<<<<<<< Updated upstream
 = 0.1632    (WHEN MIN. R.F.=1)  AT K=   3, I=   2, J=  29

 MAXIMUM STEPSIZE WHICH MEETS STABILITY CRITERION OF THE ADVECTION TERM
 (FOR PURE FINITE-DIFFERENCE OPTION, MIXELM=0) 
 = 0.1132    (WHEN MIN. R.F.=1)  AT K=   3, I=   2, J=  28
=======
 = 0.1869    (WHEN MIN. R.F.=1)  AT K=   3, I=   2, J=  31

 MAXIMUM STEPSIZE WHICH MEETS STABILITY CRITERION OF THE ADVECTION TERM
 (FOR PURE FINITE-DIFFERENCE OPTION, MIXELM=0) 
 = 0.1248    (WHEN MIN. R.F.=1)  AT K=   3, I=   2, J=  30
>>>>>>> Stashed changes


 TOTAL NUMBER OF POINT SOURCES/SINKS PRESENT IN THE FLOW MODEL =   240

 MAXIMUM STEPSIZE WHICH MEETS STABILITY CRITERION OF THE SINK & SOURCE TERM
 = 0.1000E+31(WHEN MIN. R.F.=1)  AT K=   0, I=   0, J=   0

 MAXIMUM STEPSIZE WHICH MEETS STABILITY CRITERION OF THE DISPERSION TERM
<<<<<<< Updated upstream
 = 0.6194E-02(WHEN MIN. R.F.=1)  AT K=   3, I=   2, J=  31
     1 CALLS TO GCG PACKAGE FOR TRANSPORT TIME STEP   6 IN FLOW TIME STEP  85 STRESS PERIOD   2
    12 TOTAL ITERATIONS
=======
 = 0.6696E-02(WHEN MIN. R.F.=1)  AT K=   3, I=   2, J=  30


     1 CALLS TO GCG PACKAGE FOR TRANSPORT TIME STEP   1 IN FLOW TIME STEP  84 STRESS PERIOD   2
    13 TOTAL ITERATIONS

 OUTPUT CONTROL FOR STRESS PERIOD    2   TIME STEP  84
    SAVE HEAD FOR ALL LAYERS
    SAVE BUDGET
>>>>>>> Stashed changes
 
 SOLVING FOR HEAD 
 FLOW MODEL IS TRANSIENT
 FLOW MODEL CONTAINS CONSTANT-HEAD CELLS


 MAXIMUM STEPSIZE DURING WHICH ANY PARTICLE CANNOT MOVE MORE THAN ONE CELL
<<<<<<< Updated upstream
 = 0.1632    (WHEN MIN. R.F.=1)  AT K=   3, I=   2, J=  29

 MAXIMUM STEPSIZE WHICH MEETS STABILITY CRITERION OF THE ADVECTION TERM
 (FOR PURE FINITE-DIFFERENCE OPTION, MIXELM=0) 
 = 0.1132    (WHEN MIN. R.F.=1)  AT K=   3, I=   2, J=  28
=======
 = 0.1869    (WHEN MIN. R.F.=1)  AT K=   3, I=   2, J=  31

 MAXIMUM STEPSIZE WHICH MEETS STABILITY CRITERION OF THE ADVECTION TERM
 (FOR PURE FINITE-DIFFERENCE OPTION, MIXELM=0) 
 = 0.1248    (WHEN MIN. R.F.=1)  AT K=   3, I=   2, J=  30
>>>>>>> Stashed changes


 TOTAL NUMBER OF POINT SOURCES/SINKS PRESENT IN THE FLOW MODEL =   240

 MAXIMUM STEPSIZE WHICH MEETS STABILITY CRITERION OF THE SINK & SOURCE TERM
 = 0.1000E+31(WHEN MIN. R.F.=1)  AT K=   0, I=   0, J=   0

 MAXIMUM STEPSIZE WHICH MEETS STABILITY CRITERION OF THE DISPERSION TERM
<<<<<<< Updated upstream
 = 0.6194E-02(WHEN MIN. R.F.=1)  AT K=   3, I=   2, J=  31
     1 CALLS TO GCG PACKAGE FOR TRANSPORT TIME STEP   7 IN FLOW TIME STEP  85 STRESS PERIOD   2
    12 TOTAL ITERATIONS
=======
 = 0.6696E-02(WHEN MIN. R.F.=1)  AT K=   3, I=   2, J=  30
     1 CALLS TO GCG PACKAGE FOR TRANSPORT TIME STEP   2 IN FLOW TIME STEP  84 STRESS PERIOD   2
    15 TOTAL ITERATIONS
>>>>>>> Stashed changes
 
 SOLVING FOR HEAD 
 FLOW MODEL IS TRANSIENT
 FLOW MODEL CONTAINS CONSTANT-HEAD CELLS


 MAXIMUM STEPSIZE DURING WHICH ANY PARTICLE CANNOT MOVE MORE THAN ONE CELL
<<<<<<< Updated upstream
 = 0.1632    (WHEN MIN. R.F.=1)  AT K=   3, I=   2, J=  29

 MAXIMUM STEPSIZE WHICH MEETS STABILITY CRITERION OF THE ADVECTION TERM
 (FOR PURE FINITE-DIFFERENCE OPTION, MIXELM=0) 
 = 0.1132    (WHEN MIN. R.F.=1)  AT K=   3, I=   2, J=  28
=======
 = 0.1869    (WHEN MIN. R.F.=1)  AT K=   3, I=   2, J=  31

 MAXIMUM STEPSIZE WHICH MEETS STABILITY CRITERION OF THE ADVECTION TERM
 (FOR PURE FINITE-DIFFERENCE OPTION, MIXELM=0) 
 = 0.1248    (WHEN MIN. R.F.=1)  AT K=   3, I=   2, J=  30
>>>>>>> Stashed changes


 TOTAL NUMBER OF POINT SOURCES/SINKS PRESENT IN THE FLOW MODEL =   240

 MAXIMUM STEPSIZE WHICH MEETS STABILITY CRITERION OF THE SINK & SOURCE TERM
 = 0.1000E+31(WHEN MIN. R.F.=1)  AT K=   0, I=   0, J=   0

 MAXIMUM STEPSIZE WHICH MEETS STABILITY CRITERION OF THE DISPERSION TERM
<<<<<<< Updated upstream
 = 0.6194E-02(WHEN MIN. R.F.=1)  AT K=   3, I=   2, J=  31
     1 CALLS TO GCG PACKAGE FOR TRANSPORT TIME STEP   8 IN FLOW TIME STEP  85 STRESS PERIOD   2
    12 TOTAL ITERATIONS
=======
 = 0.6696E-02(WHEN MIN. R.F.=1)  AT K=   3, I=   2, J=  30
     1 CALLS TO GCG PACKAGE FOR TRANSPORT TIME STEP   3 IN FLOW TIME STEP  84 STRESS PERIOD   2
    13 TOTAL ITERATIONS
>>>>>>> Stashed changes
 
 SOLVING FOR HEAD 
 FLOW MODEL IS TRANSIENT
 FLOW MODEL CONTAINS CONSTANT-HEAD CELLS


 MAXIMUM STEPSIZE DURING WHICH ANY PARTICLE CANNOT MOVE MORE THAN ONE CELL
<<<<<<< Updated upstream
 = 0.1632    (WHEN MIN. R.F.=1)  AT K=   3, I=   2, J=  29

 MAXIMUM STEPSIZE WHICH MEETS STABILITY CRITERION OF THE ADVECTION TERM
 (FOR PURE FINITE-DIFFERENCE OPTION, MIXELM=0) 
 = 0.1132    (WHEN MIN. R.F.=1)  AT K=   3, I=   2, J=  28
=======
 = 0.1869    (WHEN MIN. R.F.=1)  AT K=   3, I=   2, J=  31

 MAXIMUM STEPSIZE WHICH MEETS STABILITY CRITERION OF THE ADVECTION TERM
 (FOR PURE FINITE-DIFFERENCE OPTION, MIXELM=0) 
 = 0.1248    (WHEN MIN. R.F.=1)  AT K=   3, I=   2, J=  30
>>>>>>> Stashed changes


 TOTAL NUMBER OF POINT SOURCES/SINKS PRESENT IN THE FLOW MODEL =   240

 MAXIMUM STEPSIZE WHICH MEETS STABILITY CRITERION OF THE SINK & SOURCE TERM
 = 0.1000E+31(WHEN MIN. R.F.=1)  AT K=   0, I=   0, J=   0

 MAXIMUM STEPSIZE WHICH MEETS STABILITY CRITERION OF THE DISPERSION TERM
<<<<<<< Updated upstream
 = 0.6194E-02(WHEN MIN. R.F.=1)  AT K=   3, I=   2, J=  31
     1 CALLS TO GCG PACKAGE FOR TRANSPORT TIME STEP   9 IN FLOW TIME STEP  85 STRESS PERIOD   2
     4 TOTAL ITERATIONS
  MAXIMUM CONCENTRATION CHANGES FOR EACH ITERATION:
  MAX. CHANGE LAYER,ROW,COL MAX. CHANGE LAYER,ROW,COL MAX. CHANGE LAYER,ROW,COL MAX. CHANGE LAYER,ROW,COL MAX. CHANGE LAYER,ROW,COL
 ------------------------------------------------------------------------------------------------------------------------------------
   0.1278E-03 ( 14,  3, 53)  0.3960E-05 (  5,  2, 64)  0.7029E-06 (  6,  1, 56)  0.7938E-07 (  6,  1, 53)


                                          ================================================
                                                         FROM TIME =   86.000     TO    87.000    

=======
 = 0.6696E-02(WHEN MIN. R.F.=1)  AT K=   3, I=   2, J=  30
     1 CALLS TO GCG PACKAGE FOR TRANSPORT TIME STEP   4 IN FLOW TIME STEP  84 STRESS PERIOD   2
    13 TOTAL ITERATIONS
>>>>>>> Stashed changes
 
 SOLVING FOR HEAD 
 FLOW MODEL IS TRANSIENT
 FLOW MODEL CONTAINS CONSTANT-HEAD CELLS


 MAXIMUM STEPSIZE DURING WHICH ANY PARTICLE CANNOT MOVE MORE THAN ONE CELL
<<<<<<< Updated upstream
 = 0.1632    (WHEN MIN. R.F.=1)  AT K=   3, I=   2, J=  29

 MAXIMUM STEPSIZE WHICH MEETS STABILITY CRITERION OF THE ADVECTION TERM
 (FOR PURE FINITE-DIFFERENCE OPTION, MIXELM=0) 
 = 0.1132    (WHEN MIN. R.F.=1)  AT K=   3, I=   2, J=  28
=======
 = 0.1869    (WHEN MIN. R.F.=1)  AT K=   3, I=   2, J=  31

 MAXIMUM STEPSIZE WHICH MEETS STABILITY CRITERION OF THE ADVECTION TERM
 (FOR PURE FINITE-DIFFERENCE OPTION, MIXELM=0) 
 = 0.1248    (WHEN MIN. R.F.=1)  AT K=   3, I=   2, J=  30
>>>>>>> Stashed changes


 TOTAL NUMBER OF POINT SOURCES/SINKS PRESENT IN THE FLOW MODEL =   240

 MAXIMUM STEPSIZE WHICH MEETS STABILITY CRITERION OF THE SINK & SOURCE TERM
 = 0.1000E+31(WHEN MIN. R.F.=1)  AT K=   0, I=   0, J=   0

 MAXIMUM STEPSIZE WHICH MEETS STABILITY CRITERION OF THE DISPERSION TERM
<<<<<<< Updated upstream
 = 0.6194E-02(WHEN MIN. R.F.=1)  AT K=   3, I=   2, J=  31


     1 CALLS TO GCG PACKAGE FOR TRANSPORT TIME STEP   1 IN FLOW TIME STEP  86 STRESS PERIOD   2
    12 TOTAL ITERATIONS

 NO OUTPUT CONTROL FOR STRESS PERIOD    2   TIME STEP  86
=======
 = 0.6696E-02(WHEN MIN. R.F.=1)  AT K=   3, I=   2, J=  30
     1 CALLS TO GCG PACKAGE FOR TRANSPORT TIME STEP   5 IN FLOW TIME STEP  84 STRESS PERIOD   2
    13 TOTAL ITERATIONS
>>>>>>> Stashed changes
 
 SOLVING FOR HEAD 
 FLOW MODEL IS TRANSIENT
 FLOW MODEL CONTAINS CONSTANT-HEAD CELLS


 MAXIMUM STEPSIZE DURING WHICH ANY PARTICLE CANNOT MOVE MORE THAN ONE CELL
<<<<<<< Updated upstream
 = 0.1632    (WHEN MIN. R.F.=1)  AT K=   3, I=   2, J=  29

 MAXIMUM STEPSIZE WHICH MEETS STABILITY CRITERION OF THE ADVECTION TERM
 (FOR PURE FINITE-DIFFERENCE OPTION, MIXELM=0) 
 = 0.1132    (WHEN MIN. R.F.=1)  AT K=   3, I=   2, J=  28
=======
 = 0.1869    (WHEN MIN. R.F.=1)  AT K=   3, I=   2, J=  31

 MAXIMUM STEPSIZE WHICH MEETS STABILITY CRITERION OF THE ADVECTION TERM
 (FOR PURE FINITE-DIFFERENCE OPTION, MIXELM=0) 
 = 0.1248    (WHEN MIN. R.F.=1)  AT K=   3, I=   2, J=  30
>>>>>>> Stashed changes


 TOTAL NUMBER OF POINT SOURCES/SINKS PRESENT IN THE FLOW MODEL =   240

 MAXIMUM STEPSIZE WHICH MEETS STABILITY CRITERION OF THE SINK & SOURCE TERM
 = 0.1000E+31(WHEN MIN. R.F.=1)  AT K=   0, I=   0, J=   0

 MAXIMUM STEPSIZE WHICH MEETS STABILITY CRITERION OF THE DISPERSION TERM
<<<<<<< Updated upstream
 = 0.6194E-02(WHEN MIN. R.F.=1)  AT K=   3, I=   2, J=  31
     1 CALLS TO GCG PACKAGE FOR TRANSPORT TIME STEP   2 IN FLOW TIME STEP  86 STRESS PERIOD   2
    12 TOTAL ITERATIONS
=======
 = 0.6696E-02(WHEN MIN. R.F.=1)  AT K=   3, I=   2, J=  30
     1 CALLS TO GCG PACKAGE FOR TRANSPORT TIME STEP   6 IN FLOW TIME STEP  84 STRESS PERIOD   2
    13 TOTAL ITERATIONS
>>>>>>> Stashed changes
 
 SOLVING FOR HEAD 
 FLOW MODEL IS TRANSIENT
 FLOW MODEL CONTAINS CONSTANT-HEAD CELLS


 MAXIMUM STEPSIZE DURING WHICH ANY PARTICLE CANNOT MOVE MORE THAN ONE CELL
<<<<<<< Updated upstream
 = 0.1632    (WHEN MIN. R.F.=1)  AT K=   3, I=   2, J=  29

 MAXIMUM STEPSIZE WHICH MEETS STABILITY CRITERION OF THE ADVECTION TERM
 (FOR PURE FINITE-DIFFERENCE OPTION, MIXELM=0) 
 = 0.1132    (WHEN MIN. R.F.=1)  AT K=   3, I=   2, J=  28
=======
 = 0.1869    (WHEN MIN. R.F.=1)  AT K=   3, I=   2, J=  31

 MAXIMUM STEPSIZE WHICH MEETS STABILITY CRITERION OF THE ADVECTION TERM
 (FOR PURE FINITE-DIFFERENCE OPTION, MIXELM=0) 
 = 0.1248    (WHEN MIN. R.F.=1)  AT K=   3, I=   2, J=  30
>>>>>>> Stashed changes


 TOTAL NUMBER OF POINT SOURCES/SINKS PRESENT IN THE FLOW MODEL =   240

 MAXIMUM STEPSIZE WHICH MEETS STABILITY CRITERION OF THE SINK & SOURCE TERM
 = 0.1000E+31(WHEN MIN. R.F.=1)  AT K=   0, I=   0, J=   0

 MAXIMUM STEPSIZE WHICH MEETS STABILITY CRITERION OF THE DISPERSION TERM
<<<<<<< Updated upstream
 = 0.6194E-02(WHEN MIN. R.F.=1)  AT K=   3, I=   2, J=  31
     1 CALLS TO GCG PACKAGE FOR TRANSPORT TIME STEP   3 IN FLOW TIME STEP  86 STRESS PERIOD   2
    12 TOTAL ITERATIONS
=======
 = 0.6696E-02(WHEN MIN. R.F.=1)  AT K=   3, I=   2, J=  30
     1 CALLS TO GCG PACKAGE FOR TRANSPORT TIME STEP   7 IN FLOW TIME STEP  84 STRESS PERIOD   2
    15 TOTAL ITERATIONS
>>>>>>> Stashed changes
 
 SOLVING FOR HEAD 
 FLOW MODEL IS TRANSIENT
 FLOW MODEL CONTAINS CONSTANT-HEAD CELLS


 MAXIMUM STEPSIZE DURING WHICH ANY PARTICLE CANNOT MOVE MORE THAN ONE CELL
<<<<<<< Updated upstream
 = 0.1632    (WHEN MIN. R.F.=1)  AT K=   3, I=   2, J=  29

 MAXIMUM STEPSIZE WHICH MEETS STABILITY CRITERION OF THE ADVECTION TERM
 (FOR PURE FINITE-DIFFERENCE OPTION, MIXELM=0) 
 = 0.1132    (WHEN MIN. R.F.=1)  AT K=   3, I=   2, J=  28
=======
 = 0.1869    (WHEN MIN. R.F.=1)  AT K=   3, I=   2, J=  31

 MAXIMUM STEPSIZE WHICH MEETS STABILITY CRITERION OF THE ADVECTION TERM
 (FOR PURE FINITE-DIFFERENCE OPTION, MIXELM=0) 
 = 0.1248    (WHEN MIN. R.F.=1)  AT K=   3, I=   2, J=  30
>>>>>>> Stashed changes


 TOTAL NUMBER OF POINT SOURCES/SINKS PRESENT IN THE FLOW MODEL =   240

 MAXIMUM STEPSIZE WHICH MEETS STABILITY CRITERION OF THE SINK & SOURCE TERM
 = 0.1000E+31(WHEN MIN. R.F.=1)  AT K=   0, I=   0, J=   0

 MAXIMUM STEPSIZE WHICH MEETS STABILITY CRITERION OF THE DISPERSION TERM
<<<<<<< Updated upstream
 = 0.6194E-02(WHEN MIN. R.F.=1)  AT K=   3, I=   2, J=  31
     1 CALLS TO GCG PACKAGE FOR TRANSPORT TIME STEP   4 IN FLOW TIME STEP  86 STRESS PERIOD   2
    12 TOTAL ITERATIONS
=======
 = 0.6696E-02(WHEN MIN. R.F.=1)  AT K=   3, I=   2, J=  30
     1 CALLS TO GCG PACKAGE FOR TRANSPORT TIME STEP   8 IN FLOW TIME STEP  84 STRESS PERIOD   2
     5 TOTAL ITERATIONS
  MAXIMUM CONCENTRATION CHANGES FOR EACH ITERATION:
  MAX. CHANGE LAYER,ROW,COL MAX. CHANGE LAYER,ROW,COL MAX. CHANGE LAYER,ROW,COL MAX. CHANGE LAYER,ROW,COL MAX. CHANGE LAYER,ROW,COL
 ------------------------------------------------------------------------------------------------------------------------------------
   0.9407E-04 ( 14,  2, 56)  0.2467E-05 (  5,  2, 63)  0.4262E-06 (  4,  2, 56)  0.1198E-06 (  3,  2, 38)  0.5589E-07 (  4,  1, 32)
 UBDSV1 SAVING "         STORAGE" ON UNIT  53 AT TIME STEP 84, STRESS PERIOD   2
 UBDSV2 SAVING "   CONSTANT HEAD" ON UNIT  53 AT TIME STEP 84, STRESS PERIOD   2
 UBDSV1 SAVING "FLOW RIGHT FACE " ON UNIT  53 AT TIME STEP 84, STRESS PERIOD   2
 UBDSV1 SAVING "FLOW FRONT FACE " ON UNIT  53 AT TIME STEP 84, STRESS PERIOD   2
 UBDSV1 SAVING "FLOW LOWER FACE " ON UNIT  53 AT TIME STEP 84, STRESS PERIOD   2
 UBDSV1 SAVING "            DCDT" ON UNIT  53 AT TIME STEP 84, STRESS PERIOD   2

 HEAD WILL BE SAVED ON UNIT   51 AT END OF TIME STEP  84, STRESS PERIOD    2


                                          ================================================
                                                         FROM TIME =   85.000     TO    86.000    

>>>>>>> Stashed changes
 
 SOLVING FOR HEAD 
 FLOW MODEL IS TRANSIENT
 FLOW MODEL CONTAINS CONSTANT-HEAD CELLS


 MAXIMUM STEPSIZE DURING WHICH ANY PARTICLE CANNOT MOVE MORE THAN ONE CELL
<<<<<<< Updated upstream
 = 0.1632    (WHEN MIN. R.F.=1)  AT K=   3, I=   2, J=  29

 MAXIMUM STEPSIZE WHICH MEETS STABILITY CRITERION OF THE ADVECTION TERM
 (FOR PURE FINITE-DIFFERENCE OPTION, MIXELM=0) 
 = 0.1132    (WHEN MIN. R.F.=1)  AT K=   3, I=   2, J=  28
=======
 = 0.1869    (WHEN MIN. R.F.=1)  AT K=   3, I=   2, J=  31

 MAXIMUM STEPSIZE WHICH MEETS STABILITY CRITERION OF THE ADVECTION TERM
 (FOR PURE FINITE-DIFFERENCE OPTION, MIXELM=0) 
 = 0.1248    (WHEN MIN. R.F.=1)  AT K=   3, I=   2, J=  30
>>>>>>> Stashed changes


 TOTAL NUMBER OF POINT SOURCES/SINKS PRESENT IN THE FLOW MODEL =   240

 MAXIMUM STEPSIZE WHICH MEETS STABILITY CRITERION OF THE SINK & SOURCE TERM
 = 0.1000E+31(WHEN MIN. R.F.=1)  AT K=   0, I=   0, J=   0

 MAXIMUM STEPSIZE WHICH MEETS STABILITY CRITERION OF THE DISPERSION TERM
<<<<<<< Updated upstream
 = 0.6194E-02(WHEN MIN. R.F.=1)  AT K=   3, I=   2, J=  31
     1 CALLS TO GCG PACKAGE FOR TRANSPORT TIME STEP   5 IN FLOW TIME STEP  86 STRESS PERIOD   2
    12 TOTAL ITERATIONS
=======
 = 0.6696E-02(WHEN MIN. R.F.=1)  AT K=   3, I=   2, J=  30


     1 CALLS TO GCG PACKAGE FOR TRANSPORT TIME STEP   1 IN FLOW TIME STEP  85 STRESS PERIOD   2
    13 TOTAL ITERATIONS

 OUTPUT CONTROL FOR STRESS PERIOD    2   TIME STEP  85
    SAVE HEAD FOR ALL LAYERS
    SAVE BUDGET
>>>>>>> Stashed changes
 
 SOLVING FOR HEAD 
 FLOW MODEL IS TRANSIENT
 FLOW MODEL CONTAINS CONSTANT-HEAD CELLS


 MAXIMUM STEPSIZE DURING WHICH ANY PARTICLE CANNOT MOVE MORE THAN ONE CELL
<<<<<<< Updated upstream
 = 0.1632    (WHEN MIN. R.F.=1)  AT K=   3, I=   2, J=  29

 MAXIMUM STEPSIZE WHICH MEETS STABILITY CRITERION OF THE ADVECTION TERM
 (FOR PURE FINITE-DIFFERENCE OPTION, MIXELM=0) 
 = 0.1132    (WHEN MIN. R.F.=1)  AT K=   3, I=   2, J=  28
=======
 = 0.1869    (WHEN MIN. R.F.=1)  AT K=   3, I=   2, J=  31

 MAXIMUM STEPSIZE WHICH MEETS STABILITY CRITERION OF THE ADVECTION TERM
 (FOR PURE FINITE-DIFFERENCE OPTION, MIXELM=0) 
 = 0.1248    (WHEN MIN. R.F.=1)  AT K=   3, I=   2, J=  30
>>>>>>> Stashed changes


 TOTAL NUMBER OF POINT SOURCES/SINKS PRESENT IN THE FLOW MODEL =   240

 MAXIMUM STEPSIZE WHICH MEETS STABILITY CRITERION OF THE SINK & SOURCE TERM
 = 0.1000E+31(WHEN MIN. R.F.=1)  AT K=   0, I=   0, J=   0

 MAXIMUM STEPSIZE WHICH MEETS STABILITY CRITERION OF THE DISPERSION TERM
<<<<<<< Updated upstream
 = 0.6194E-02(WHEN MIN. R.F.=1)  AT K=   3, I=   2, J=  31
     1 CALLS TO GCG PACKAGE FOR TRANSPORT TIME STEP   6 IN FLOW TIME STEP  86 STRESS PERIOD   2
    12 TOTAL ITERATIONS
=======
 = 0.6696E-02(WHEN MIN. R.F.=1)  AT K=   3, I=   2, J=  30
     1 CALLS TO GCG PACKAGE FOR TRANSPORT TIME STEP   2 IN FLOW TIME STEP  85 STRESS PERIOD   2
    13 TOTAL ITERATIONS
>>>>>>> Stashed changes
 
 SOLVING FOR HEAD 
 FLOW MODEL IS TRANSIENT
 FLOW MODEL CONTAINS CONSTANT-HEAD CELLS


 MAXIMUM STEPSIZE DURING WHICH ANY PARTICLE CANNOT MOVE MORE THAN ONE CELL
<<<<<<< Updated upstream
 = 0.1632    (WHEN MIN. R.F.=1)  AT K=   3, I=   2, J=  29

 MAXIMUM STEPSIZE WHICH MEETS STABILITY CRITERION OF THE ADVECTION TERM
 (FOR PURE FINITE-DIFFERENCE OPTION, MIXELM=0) 
 = 0.1132    (WHEN MIN. R.F.=1)  AT K=   3, I=   2, J=  28
=======
 = 0.1869    (WHEN MIN. R.F.=1)  AT K=   3, I=   2, J=  31

 MAXIMUM STEPSIZE WHICH MEETS STABILITY CRITERION OF THE ADVECTION TERM
 (FOR PURE FINITE-DIFFERENCE OPTION, MIXELM=0) 
 = 0.1248    (WHEN MIN. R.F.=1)  AT K=   3, I=   2, J=  30
>>>>>>> Stashed changes


 TOTAL NUMBER OF POINT SOURCES/SINKS PRESENT IN THE FLOW MODEL =   240

 MAXIMUM STEPSIZE WHICH MEETS STABILITY CRITERION OF THE SINK & SOURCE TERM
 = 0.1000E+31(WHEN MIN. R.F.=1)  AT K=   0, I=   0, J=   0

 MAXIMUM STEPSIZE WHICH MEETS STABILITY CRITERION OF THE DISPERSION TERM
<<<<<<< Updated upstream
 = 0.6194E-02(WHEN MIN. R.F.=1)  AT K=   3, I=   2, J=  31
     1 CALLS TO GCG PACKAGE FOR TRANSPORT TIME STEP   7 IN FLOW TIME STEP  86 STRESS PERIOD   2
    12 TOTAL ITERATIONS
=======
 = 0.6696E-02(WHEN MIN. R.F.=1)  AT K=   3, I=   2, J=  30
     1 CALLS TO GCG PACKAGE FOR TRANSPORT TIME STEP   3 IN FLOW TIME STEP  85 STRESS PERIOD   2
    13 TOTAL ITERATIONS
>>>>>>> Stashed changes
 
 SOLVING FOR HEAD 
 FLOW MODEL IS TRANSIENT
 FLOW MODEL CONTAINS CONSTANT-HEAD CELLS


 MAXIMUM STEPSIZE DURING WHICH ANY PARTICLE CANNOT MOVE MORE THAN ONE CELL
<<<<<<< Updated upstream
 = 0.1632    (WHEN MIN. R.F.=1)  AT K=   3, I=   2, J=  29

 MAXIMUM STEPSIZE WHICH MEETS STABILITY CRITERION OF THE ADVECTION TERM
 (FOR PURE FINITE-DIFFERENCE OPTION, MIXELM=0) 
 = 0.1132    (WHEN MIN. R.F.=1)  AT K=   3, I=   2, J=  28
=======
 = 0.1869    (WHEN MIN. R.F.=1)  AT K=   3, I=   2, J=  31

 MAXIMUM STEPSIZE WHICH MEETS STABILITY CRITERION OF THE ADVECTION TERM
 (FOR PURE FINITE-DIFFERENCE OPTION, MIXELM=0) 
 = 0.1248    (WHEN MIN. R.F.=1)  AT K=   3, I=   2, J=  30
>>>>>>> Stashed changes


 TOTAL NUMBER OF POINT SOURCES/SINKS PRESENT IN THE FLOW MODEL =   240

 MAXIMUM STEPSIZE WHICH MEETS STABILITY CRITERION OF THE SINK & SOURCE TERM
 = 0.1000E+31(WHEN MIN. R.F.=1)  AT K=   0, I=   0, J=   0

 MAXIMUM STEPSIZE WHICH MEETS STABILITY CRITERION OF THE DISPERSION TERM
<<<<<<< Updated upstream
 = 0.6194E-02(WHEN MIN. R.F.=1)  AT K=   3, I=   2, J=  31
     1 CALLS TO GCG PACKAGE FOR TRANSPORT TIME STEP   8 IN FLOW TIME STEP  86 STRESS PERIOD   2
    12 TOTAL ITERATIONS
=======
 = 0.6696E-02(WHEN MIN. R.F.=1)  AT K=   3, I=   2, J=  30
     1 CALLS TO GCG PACKAGE FOR TRANSPORT TIME STEP   4 IN FLOW TIME STEP  85 STRESS PERIOD   2
    15 TOTAL ITERATIONS
>>>>>>> Stashed changes
 
 SOLVING FOR HEAD 
 FLOW MODEL IS TRANSIENT
 FLOW MODEL CONTAINS CONSTANT-HEAD CELLS


 MAXIMUM STEPSIZE DURING WHICH ANY PARTICLE CANNOT MOVE MORE THAN ONE CELL
<<<<<<< Updated upstream
 = 0.1632    (WHEN MIN. R.F.=1)  AT K=   3, I=   2, J=  29

 MAXIMUM STEPSIZE WHICH MEETS STABILITY CRITERION OF THE ADVECTION TERM
 (FOR PURE FINITE-DIFFERENCE OPTION, MIXELM=0) 
 = 0.1132    (WHEN MIN. R.F.=1)  AT K=   3, I=   2, J=  28
=======
 = 0.1869    (WHEN MIN. R.F.=1)  AT K=   3, I=   2, J=  31

 MAXIMUM STEPSIZE WHICH MEETS STABILITY CRITERION OF THE ADVECTION TERM
 (FOR PURE FINITE-DIFFERENCE OPTION, MIXELM=0) 
 = 0.1248    (WHEN MIN. R.F.=1)  AT K=   3, I=   2, J=  30
>>>>>>> Stashed changes


 TOTAL NUMBER OF POINT SOURCES/SINKS PRESENT IN THE FLOW MODEL =   240

 MAXIMUM STEPSIZE WHICH MEETS STABILITY CRITERION OF THE SINK & SOURCE TERM
 = 0.1000E+31(WHEN MIN. R.F.=1)  AT K=   0, I=   0, J=   0

 MAXIMUM STEPSIZE WHICH MEETS STABILITY CRITERION OF THE DISPERSION TERM
<<<<<<< Updated upstream
 = 0.6194E-02(WHEN MIN. R.F.=1)  AT K=   3, I=   2, J=  31
     1 CALLS TO GCG PACKAGE FOR TRANSPORT TIME STEP   9 IN FLOW TIME STEP  86 STRESS PERIOD   2
     4 TOTAL ITERATIONS
  MAXIMUM CONCENTRATION CHANGES FOR EACH ITERATION:
  MAX. CHANGE LAYER,ROW,COL MAX. CHANGE LAYER,ROW,COL MAX. CHANGE LAYER,ROW,COL MAX. CHANGE LAYER,ROW,COL MAX. CHANGE LAYER,ROW,COL
 ------------------------------------------------------------------------------------------------------------------------------------
   0.1296E-03 ( 13,  3, 55)  0.3872E-05 (  5,  2, 65)  0.6837E-06 (  6,  1, 56)  0.7813E-07 (  6,  1, 54)


                                          ================================================
                                                         FROM TIME =   87.000     TO    88.000    

=======
 = 0.6696E-02(WHEN MIN. R.F.=1)  AT K=   3, I=   2, J=  30
     1 CALLS TO GCG PACKAGE FOR TRANSPORT TIME STEP   5 IN FLOW TIME STEP  85 STRESS PERIOD   2
    13 TOTAL ITERATIONS
>>>>>>> Stashed changes
 
 SOLVING FOR HEAD 
 FLOW MODEL IS TRANSIENT
 FLOW MODEL CONTAINS CONSTANT-HEAD CELLS


 MAXIMUM STEPSIZE DURING WHICH ANY PARTICLE CANNOT MOVE MORE THAN ONE CELL
<<<<<<< Updated upstream
 = 0.1632    (WHEN MIN. R.F.=1)  AT K=   3, I=   2, J=  29

 MAXIMUM STEPSIZE WHICH MEETS STABILITY CRITERION OF THE ADVECTION TERM
 (FOR PURE FINITE-DIFFERENCE OPTION, MIXELM=0) 
 = 0.1132    (WHEN MIN. R.F.=1)  AT K=   3, I=   2, J=  28
=======
 = 0.1869    (WHEN MIN. R.F.=1)  AT K=   3, I=   2, J=  31

 MAXIMUM STEPSIZE WHICH MEETS STABILITY CRITERION OF THE ADVECTION TERM
 (FOR PURE FINITE-DIFFERENCE OPTION, MIXELM=0) 
 = 0.1248    (WHEN MIN. R.F.=1)  AT K=   3, I=   2, J=  30
>>>>>>> Stashed changes


 TOTAL NUMBER OF POINT SOURCES/SINKS PRESENT IN THE FLOW MODEL =   240

 MAXIMUM STEPSIZE WHICH MEETS STABILITY CRITERION OF THE SINK & SOURCE TERM
 = 0.1000E+31(WHEN MIN. R.F.=1)  AT K=   0, I=   0, J=   0

 MAXIMUM STEPSIZE WHICH MEETS STABILITY CRITERION OF THE DISPERSION TERM
<<<<<<< Updated upstream
 = 0.6194E-02(WHEN MIN. R.F.=1)  AT K=   3, I=   2, J=  31


     1 CALLS TO GCG PACKAGE FOR TRANSPORT TIME STEP   1 IN FLOW TIME STEP  87 STRESS PERIOD   2
    12 TOTAL ITERATIONS

 NO OUTPUT CONTROL FOR STRESS PERIOD    2   TIME STEP  87
 
 SOLVING FOR HEAD 
 FLOW MODEL IS TRANSIENT
 FLOW MODEL CONTAINS CONSTANT-HEAD CELLS


 MAXIMUM STEPSIZE DURING WHICH ANY PARTICLE CANNOT MOVE MORE THAN ONE CELL
 = 0.1632    (WHEN MIN. R.F.=1)  AT K=   3, I=   2, J=  29

 MAXIMUM STEPSIZE WHICH MEETS STABILITY CRITERION OF THE ADVECTION TERM
 (FOR PURE FINITE-DIFFERENCE OPTION, MIXELM=0) 
 = 0.1132    (WHEN MIN. R.F.=1)  AT K=   3, I=   2, J=  28


 TOTAL NUMBER OF POINT SOURCES/SINKS PRESENT IN THE FLOW MODEL =   240

 MAXIMUM STEPSIZE WHICH MEETS STABILITY CRITERION OF THE SINK & SOURCE TERM
 = 0.1000E+31(WHEN MIN. R.F.=1)  AT K=   0, I=   0, J=   0

 MAXIMUM STEPSIZE WHICH MEETS STABILITY CRITERION OF THE DISPERSION TERM
 = 0.6194E-02(WHEN MIN. R.F.=1)  AT K=   3, I=   2, J=  31
     1 CALLS TO GCG PACKAGE FOR TRANSPORT TIME STEP   2 IN FLOW TIME STEP  87 STRESS PERIOD   2
    12 TOTAL ITERATIONS
=======
 = 0.6696E-02(WHEN MIN. R.F.=1)  AT K=   3, I=   2, J=  30
     1 CALLS TO GCG PACKAGE FOR TRANSPORT TIME STEP   6 IN FLOW TIME STEP  85 STRESS PERIOD   2
    13 TOTAL ITERATIONS
>>>>>>> Stashed changes
 
 SOLVING FOR HEAD 
 FLOW MODEL IS TRANSIENT
 FLOW MODEL CONTAINS CONSTANT-HEAD CELLS


 MAXIMUM STEPSIZE DURING WHICH ANY PARTICLE CANNOT MOVE MORE THAN ONE CELL
<<<<<<< Updated upstream
 = 0.1632    (WHEN MIN. R.F.=1)  AT K=   3, I=   2, J=  29

 MAXIMUM STEPSIZE WHICH MEETS STABILITY CRITERION OF THE ADVECTION TERM
 (FOR PURE FINITE-DIFFERENCE OPTION, MIXELM=0) 
 = 0.1132    (WHEN MIN. R.F.=1)  AT K=   3, I=   2, J=  28
=======
 = 0.1869    (WHEN MIN. R.F.=1)  AT K=   3, I=   2, J=  31

 MAXIMUM STEPSIZE WHICH MEETS STABILITY CRITERION OF THE ADVECTION TERM
 (FOR PURE FINITE-DIFFERENCE OPTION, MIXELM=0) 
 = 0.1248    (WHEN MIN. R.F.=1)  AT K=   3, I=   2, J=  30
>>>>>>> Stashed changes


 TOTAL NUMBER OF POINT SOURCES/SINKS PRESENT IN THE FLOW MODEL =   240

 MAXIMUM STEPSIZE WHICH MEETS STABILITY CRITERION OF THE SINK & SOURCE TERM
 = 0.1000E+31(WHEN MIN. R.F.=1)  AT K=   0, I=   0, J=   0

 MAXIMUM STEPSIZE WHICH MEETS STABILITY CRITERION OF THE DISPERSION TERM
<<<<<<< Updated upstream
 = 0.6194E-02(WHEN MIN. R.F.=1)  AT K=   3, I=   2, J=  31
     1 CALLS TO GCG PACKAGE FOR TRANSPORT TIME STEP   3 IN FLOW TIME STEP  87 STRESS PERIOD   2
    12 TOTAL ITERATIONS
=======
 = 0.6696E-02(WHEN MIN. R.F.=1)  AT K=   3, I=   2, J=  30
     1 CALLS TO GCG PACKAGE FOR TRANSPORT TIME STEP   7 IN FLOW TIME STEP  85 STRESS PERIOD   2
    14 TOTAL ITERATIONS
>>>>>>> Stashed changes
 
 SOLVING FOR HEAD 
 FLOW MODEL IS TRANSIENT
 FLOW MODEL CONTAINS CONSTANT-HEAD CELLS


 MAXIMUM STEPSIZE DURING WHICH ANY PARTICLE CANNOT MOVE MORE THAN ONE CELL
<<<<<<< Updated upstream
 = 0.1632    (WHEN MIN. R.F.=1)  AT K=   3, I=   2, J=  29

 MAXIMUM STEPSIZE WHICH MEETS STABILITY CRITERION OF THE ADVECTION TERM
 (FOR PURE FINITE-DIFFERENCE OPTION, MIXELM=0) 
 = 0.1132    (WHEN MIN. R.F.=1)  AT K=   3, I=   2, J=  28
=======
 = 0.1869    (WHEN MIN. R.F.=1)  AT K=   3, I=   2, J=  31

 MAXIMUM STEPSIZE WHICH MEETS STABILITY CRITERION OF THE ADVECTION TERM
 (FOR PURE FINITE-DIFFERENCE OPTION, MIXELM=0) 
 = 0.1248    (WHEN MIN. R.F.=1)  AT K=   3, I=   2, J=  30
>>>>>>> Stashed changes


 TOTAL NUMBER OF POINT SOURCES/SINKS PRESENT IN THE FLOW MODEL =   240

 MAXIMUM STEPSIZE WHICH MEETS STABILITY CRITERION OF THE SINK & SOURCE TERM
 = 0.1000E+31(WHEN MIN. R.F.=1)  AT K=   0, I=   0, J=   0

 MAXIMUM STEPSIZE WHICH MEETS STABILITY CRITERION OF THE DISPERSION TERM
<<<<<<< Updated upstream
 = 0.6194E-02(WHEN MIN. R.F.=1)  AT K=   3, I=   2, J=  31
     1 CALLS TO GCG PACKAGE FOR TRANSPORT TIME STEP   4 IN FLOW TIME STEP  87 STRESS PERIOD   2
    12 TOTAL ITERATIONS
=======
 = 0.6696E-02(WHEN MIN. R.F.=1)  AT K=   3, I=   2, J=  30
     1 CALLS TO GCG PACKAGE FOR TRANSPORT TIME STEP   8 IN FLOW TIME STEP  85 STRESS PERIOD   2
     5 TOTAL ITERATIONS
  MAXIMUM CONCENTRATION CHANGES FOR EACH ITERATION:
  MAX. CHANGE LAYER,ROW,COL MAX. CHANGE LAYER,ROW,COL MAX. CHANGE LAYER,ROW,COL MAX. CHANGE LAYER,ROW,COL MAX. CHANGE LAYER,ROW,COL
 ------------------------------------------------------------------------------------------------------------------------------------
   0.9296E-04 ( 14,  2, 56)  0.2409E-05 (  5,  2, 63)  0.4144E-06 (  4,  2, 56)  0.1011E-06 (  3,  2, 44)  0.4115E-07 (  4,  1, 32)
 UBDSV1 SAVING "         STORAGE" ON UNIT  53 AT TIME STEP 85, STRESS PERIOD   2
 UBDSV2 SAVING "   CONSTANT HEAD" ON UNIT  53 AT TIME STEP 85, STRESS PERIOD   2
 UBDSV1 SAVING "FLOW RIGHT FACE " ON UNIT  53 AT TIME STEP 85, STRESS PERIOD   2
 UBDSV1 SAVING "FLOW FRONT FACE " ON UNIT  53 AT TIME STEP 85, STRESS PERIOD   2
 UBDSV1 SAVING "FLOW LOWER FACE " ON UNIT  53 AT TIME STEP 85, STRESS PERIOD   2
 UBDSV1 SAVING "            DCDT" ON UNIT  53 AT TIME STEP 85, STRESS PERIOD   2

 HEAD WILL BE SAVED ON UNIT   51 AT END OF TIME STEP  85, STRESS PERIOD    2


                                          ================================================
                                                         FROM TIME =   86.000     TO    87.000    

>>>>>>> Stashed changes
 
 SOLVING FOR HEAD 
 FLOW MODEL IS TRANSIENT
 FLOW MODEL CONTAINS CONSTANT-HEAD CELLS


 MAXIMUM STEPSIZE DURING WHICH ANY PARTICLE CANNOT MOVE MORE THAN ONE CELL
<<<<<<< Updated upstream
 = 0.1632    (WHEN MIN. R.F.=1)  AT K=   3, I=   2, J=  29

 MAXIMUM STEPSIZE WHICH MEETS STABILITY CRITERION OF THE ADVECTION TERM
 (FOR PURE FINITE-DIFFERENCE OPTION, MIXELM=0) 
 = 0.1132    (WHEN MIN. R.F.=1)  AT K=   3, I=   2, J=  28
=======
 = 0.1869    (WHEN MIN. R.F.=1)  AT K=   3, I=   2, J=  31

 MAXIMUM STEPSIZE WHICH MEETS STABILITY CRITERION OF THE ADVECTION TERM
 (FOR PURE FINITE-DIFFERENCE OPTION, MIXELM=0) 
 = 0.1248    (WHEN MIN. R.F.=1)  AT K=   3, I=   2, J=  30
>>>>>>> Stashed changes


 TOTAL NUMBER OF POINT SOURCES/SINKS PRESENT IN THE FLOW MODEL =   240

 MAXIMUM STEPSIZE WHICH MEETS STABILITY CRITERION OF THE SINK & SOURCE TERM
 = 0.1000E+31(WHEN MIN. R.F.=1)  AT K=   0, I=   0, J=   0

 MAXIMUM STEPSIZE WHICH MEETS STABILITY CRITERION OF THE DISPERSION TERM
<<<<<<< Updated upstream
 = 0.6194E-02(WHEN MIN. R.F.=1)  AT K=   3, I=   2, J=  31
     1 CALLS TO GCG PACKAGE FOR TRANSPORT TIME STEP   5 IN FLOW TIME STEP  87 STRESS PERIOD   2
    12 TOTAL ITERATIONS
=======
 = 0.6696E-02(WHEN MIN. R.F.=1)  AT K=   3, I=   2, J=  30


     1 CALLS TO GCG PACKAGE FOR TRANSPORT TIME STEP   1 IN FLOW TIME STEP  86 STRESS PERIOD   2
    13 TOTAL ITERATIONS

 OUTPUT CONTROL FOR STRESS PERIOD    2   TIME STEP  86
    SAVE HEAD FOR ALL LAYERS
    SAVE BUDGET
>>>>>>> Stashed changes
 
 SOLVING FOR HEAD 
 FLOW MODEL IS TRANSIENT
 FLOW MODEL CONTAINS CONSTANT-HEAD CELLS


 MAXIMUM STEPSIZE DURING WHICH ANY PARTICLE CANNOT MOVE MORE THAN ONE CELL
<<<<<<< Updated upstream
 = 0.1632    (WHEN MIN. R.F.=1)  AT K=   3, I=   2, J=  29

 MAXIMUM STEPSIZE WHICH MEETS STABILITY CRITERION OF THE ADVECTION TERM
 (FOR PURE FINITE-DIFFERENCE OPTION, MIXELM=0) 
 = 0.1132    (WHEN MIN. R.F.=1)  AT K=   3, I=   2, J=  28
=======
 = 0.1869    (WHEN MIN. R.F.=1)  AT K=   3, I=   2, J=  31

 MAXIMUM STEPSIZE WHICH MEETS STABILITY CRITERION OF THE ADVECTION TERM
 (FOR PURE FINITE-DIFFERENCE OPTION, MIXELM=0) 
 = 0.1248    (WHEN MIN. R.F.=1)  AT K=   3, I=   2, J=  30
>>>>>>> Stashed changes


 TOTAL NUMBER OF POINT SOURCES/SINKS PRESENT IN THE FLOW MODEL =   240

 MAXIMUM STEPSIZE WHICH MEETS STABILITY CRITERION OF THE SINK & SOURCE TERM
 = 0.1000E+31(WHEN MIN. R.F.=1)  AT K=   0, I=   0, J=   0

 MAXIMUM STEPSIZE WHICH MEETS STABILITY CRITERION OF THE DISPERSION TERM
<<<<<<< Updated upstream
 = 0.6194E-02(WHEN MIN. R.F.=1)  AT K=   3, I=   2, J=  31
     1 CALLS TO GCG PACKAGE FOR TRANSPORT TIME STEP   6 IN FLOW TIME STEP  87 STRESS PERIOD   2
    12 TOTAL ITERATIONS
=======
 = 0.6696E-02(WHEN MIN. R.F.=1)  AT K=   3, I=   2, J=  30
     1 CALLS TO GCG PACKAGE FOR TRANSPORT TIME STEP   2 IN FLOW TIME STEP  86 STRESS PERIOD   2
    14 TOTAL ITERATIONS
>>>>>>> Stashed changes
 
 SOLVING FOR HEAD 
 FLOW MODEL IS TRANSIENT
 FLOW MODEL CONTAINS CONSTANT-HEAD CELLS


 MAXIMUM STEPSIZE DURING WHICH ANY PARTICLE CANNOT MOVE MORE THAN ONE CELL
<<<<<<< Updated upstream
 = 0.1632    (WHEN MIN. R.F.=1)  AT K=   3, I=   2, J=  29

 MAXIMUM STEPSIZE WHICH MEETS STABILITY CRITERION OF THE ADVECTION TERM
 (FOR PURE FINITE-DIFFERENCE OPTION, MIXELM=0) 
 = 0.1132    (WHEN MIN. R.F.=1)  AT K=   3, I=   2, J=  28
=======
 = 0.1869    (WHEN MIN. R.F.=1)  AT K=   3, I=   2, J=  31

 MAXIMUM STEPSIZE WHICH MEETS STABILITY CRITERION OF THE ADVECTION TERM
 (FOR PURE FINITE-DIFFERENCE OPTION, MIXELM=0) 
 = 0.1248    (WHEN MIN. R.F.=1)  AT K=   3, I=   2, J=  30
>>>>>>> Stashed changes


 TOTAL NUMBER OF POINT SOURCES/SINKS PRESENT IN THE FLOW MODEL =   240

 MAXIMUM STEPSIZE WHICH MEETS STABILITY CRITERION OF THE SINK & SOURCE TERM
 = 0.1000E+31(WHEN MIN. R.F.=1)  AT K=   0, I=   0, J=   0

 MAXIMUM STEPSIZE WHICH MEETS STABILITY CRITERION OF THE DISPERSION TERM
<<<<<<< Updated upstream
 = 0.6194E-02(WHEN MIN. R.F.=1)  AT K=   3, I=   2, J=  31
     1 CALLS TO GCG PACKAGE FOR TRANSPORT TIME STEP   7 IN FLOW TIME STEP  87 STRESS PERIOD   2
    12 TOTAL ITERATIONS
=======
 = 0.6695E-02(WHEN MIN. R.F.=1)  AT K=   3, I=   2, J=  30
     1 CALLS TO GCG PACKAGE FOR TRANSPORT TIME STEP   3 IN FLOW TIME STEP  86 STRESS PERIOD   2
    13 TOTAL ITERATIONS
>>>>>>> Stashed changes
 
 SOLVING FOR HEAD 
 FLOW MODEL IS TRANSIENT
 FLOW MODEL CONTAINS CONSTANT-HEAD CELLS


 MAXIMUM STEPSIZE DURING WHICH ANY PARTICLE CANNOT MOVE MORE THAN ONE CELL
<<<<<<< Updated upstream
 = 0.1632    (WHEN MIN. R.F.=1)  AT K=   3, I=   2, J=  29

 MAXIMUM STEPSIZE WHICH MEETS STABILITY CRITERION OF THE ADVECTION TERM
 (FOR PURE FINITE-DIFFERENCE OPTION, MIXELM=0) 
 = 0.1132    (WHEN MIN. R.F.=1)  AT K=   3, I=   2, J=  28
=======
 = 0.1869    (WHEN MIN. R.F.=1)  AT K=   3, I=   2, J=  31

 MAXIMUM STEPSIZE WHICH MEETS STABILITY CRITERION OF THE ADVECTION TERM
 (FOR PURE FINITE-DIFFERENCE OPTION, MIXELM=0) 
 = 0.1248    (WHEN MIN. R.F.=1)  AT K=   3, I=   2, J=  30
>>>>>>> Stashed changes


 TOTAL NUMBER OF POINT SOURCES/SINKS PRESENT IN THE FLOW MODEL =   240

 MAXIMUM STEPSIZE WHICH MEETS STABILITY CRITERION OF THE SINK & SOURCE TERM
 = 0.1000E+31(WHEN MIN. R.F.=1)  AT K=   0, I=   0, J=   0

 MAXIMUM STEPSIZE WHICH MEETS STABILITY CRITERION OF THE DISPERSION TERM
<<<<<<< Updated upstream
 = 0.6194E-02(WHEN MIN. R.F.=1)  AT K=   3, I=   2, J=  31
     1 CALLS TO GCG PACKAGE FOR TRANSPORT TIME STEP   8 IN FLOW TIME STEP  87 STRESS PERIOD   2
    12 TOTAL ITERATIONS
=======
 = 0.6695E-02(WHEN MIN. R.F.=1)  AT K=   3, I=   2, J=  30
     1 CALLS TO GCG PACKAGE FOR TRANSPORT TIME STEP   4 IN FLOW TIME STEP  86 STRESS PERIOD   2
    13 TOTAL ITERATIONS
>>>>>>> Stashed changes
 
 SOLVING FOR HEAD 
 FLOW MODEL IS TRANSIENT
 FLOW MODEL CONTAINS CONSTANT-HEAD CELLS


 MAXIMUM STEPSIZE DURING WHICH ANY PARTICLE CANNOT MOVE MORE THAN ONE CELL
<<<<<<< Updated upstream
 = 0.1632    (WHEN MIN. R.F.=1)  AT K=   3, I=   2, J=  29

 MAXIMUM STEPSIZE WHICH MEETS STABILITY CRITERION OF THE ADVECTION TERM
 (FOR PURE FINITE-DIFFERENCE OPTION, MIXELM=0) 
 = 0.1132    (WHEN MIN. R.F.=1)  AT K=   3, I=   2, J=  28
=======
 = 0.1869    (WHEN MIN. R.F.=1)  AT K=   3, I=   2, J=  31

 MAXIMUM STEPSIZE WHICH MEETS STABILITY CRITERION OF THE ADVECTION TERM
 (FOR PURE FINITE-DIFFERENCE OPTION, MIXELM=0) 
 = 0.1248    (WHEN MIN. R.F.=1)  AT K=   3, I=   2, J=  30
>>>>>>> Stashed changes


 TOTAL NUMBER OF POINT SOURCES/SINKS PRESENT IN THE FLOW MODEL =   240

 MAXIMUM STEPSIZE WHICH MEETS STABILITY CRITERION OF THE SINK & SOURCE TERM
 = 0.1000E+31(WHEN MIN. R.F.=1)  AT K=   0, I=   0, J=   0

 MAXIMUM STEPSIZE WHICH MEETS STABILITY CRITERION OF THE DISPERSION TERM
<<<<<<< Updated upstream
 = 0.6194E-02(WHEN MIN. R.F.=1)  AT K=   3, I=   2, J=  31
     1 CALLS TO GCG PACKAGE FOR TRANSPORT TIME STEP   9 IN FLOW TIME STEP  87 STRESS PERIOD   2
     4 TOTAL ITERATIONS
  MAXIMUM CONCENTRATION CHANGES FOR EACH ITERATION:
  MAX. CHANGE LAYER,ROW,COL MAX. CHANGE LAYER,ROW,COL MAX. CHANGE LAYER,ROW,COL MAX. CHANGE LAYER,ROW,COL MAX. CHANGE LAYER,ROW,COL
 ------------------------------------------------------------------------------------------------------------------------------------
   0.1316E-03 ( 13,  3, 55)  0.3788E-05 (  5,  2, 65)  0.6650E-06 (  6,  1, 56)  0.7698E-07 (  6,  1, 54)


                                          ================================================
                                                         FROM TIME =   88.000     TO    89.000    

=======
 = 0.6695E-02(WHEN MIN. R.F.=1)  AT K=   3, I=   2, J=  30
     1 CALLS TO GCG PACKAGE FOR TRANSPORT TIME STEP   5 IN FLOW TIME STEP  86 STRESS PERIOD   2
    13 TOTAL ITERATIONS
>>>>>>> Stashed changes
 
 SOLVING FOR HEAD 
 FLOW MODEL IS TRANSIENT
 FLOW MODEL CONTAINS CONSTANT-HEAD CELLS


 MAXIMUM STEPSIZE DURING WHICH ANY PARTICLE CANNOT MOVE MORE THAN ONE CELL
<<<<<<< Updated upstream
 = 0.1632    (WHEN MIN. R.F.=1)  AT K=   3, I=   2, J=  29

 MAXIMUM STEPSIZE WHICH MEETS STABILITY CRITERION OF THE ADVECTION TERM
 (FOR PURE FINITE-DIFFERENCE OPTION, MIXELM=0) 
 = 0.1132    (WHEN MIN. R.F.=1)  AT K=   3, I=   2, J=  28
=======
 = 0.1869    (WHEN MIN. R.F.=1)  AT K=   3, I=   2, J=  31

 MAXIMUM STEPSIZE WHICH MEETS STABILITY CRITERION OF THE ADVECTION TERM
 (FOR PURE FINITE-DIFFERENCE OPTION, MIXELM=0) 
 = 0.1248    (WHEN MIN. R.F.=1)  AT K=   3, I=   2, J=  30
>>>>>>> Stashed changes


 TOTAL NUMBER OF POINT SOURCES/SINKS PRESENT IN THE FLOW MODEL =   240

 MAXIMUM STEPSIZE WHICH MEETS STABILITY CRITERION OF THE SINK & SOURCE TERM
 = 0.1000E+31(WHEN MIN. R.F.=1)  AT K=   0, I=   0, J=   0

 MAXIMUM STEPSIZE WHICH MEETS STABILITY CRITERION OF THE DISPERSION TERM
<<<<<<< Updated upstream
 = 0.6194E-02(WHEN MIN. R.F.=1)  AT K=   3, I=   2, J=  31


     1 CALLS TO GCG PACKAGE FOR TRANSPORT TIME STEP   1 IN FLOW TIME STEP  88 STRESS PERIOD   2
    12 TOTAL ITERATIONS

 NO OUTPUT CONTROL FOR STRESS PERIOD    2   TIME STEP  88
=======
 = 0.6695E-02(WHEN MIN. R.F.=1)  AT K=   3, I=   2, J=  30
     1 CALLS TO GCG PACKAGE FOR TRANSPORT TIME STEP   6 IN FLOW TIME STEP  86 STRESS PERIOD   2
    13 TOTAL ITERATIONS
>>>>>>> Stashed changes
 
 SOLVING FOR HEAD 
 FLOW MODEL IS TRANSIENT
 FLOW MODEL CONTAINS CONSTANT-HEAD CELLS


 MAXIMUM STEPSIZE DURING WHICH ANY PARTICLE CANNOT MOVE MORE THAN ONE CELL
<<<<<<< Updated upstream
 = 0.1632    (WHEN MIN. R.F.=1)  AT K=   3, I=   2, J=  29

 MAXIMUM STEPSIZE WHICH MEETS STABILITY CRITERION OF THE ADVECTION TERM
 (FOR PURE FINITE-DIFFERENCE OPTION, MIXELM=0) 
 = 0.1132    (WHEN MIN. R.F.=1)  AT K=   3, I=   2, J=  28
=======
 = 0.1869    (WHEN MIN. R.F.=1)  AT K=   3, I=   2, J=  31

 MAXIMUM STEPSIZE WHICH MEETS STABILITY CRITERION OF THE ADVECTION TERM
 (FOR PURE FINITE-DIFFERENCE OPTION, MIXELM=0) 
 = 0.1248    (WHEN MIN. R.F.=1)  AT K=   3, I=   2, J=  30
>>>>>>> Stashed changes


 TOTAL NUMBER OF POINT SOURCES/SINKS PRESENT IN THE FLOW MODEL =   240

 MAXIMUM STEPSIZE WHICH MEETS STABILITY CRITERION OF THE SINK & SOURCE TERM
 = 0.1000E+31(WHEN MIN. R.F.=1)  AT K=   0, I=   0, J=   0

 MAXIMUM STEPSIZE WHICH MEETS STABILITY CRITERION OF THE DISPERSION TERM
<<<<<<< Updated upstream
 = 0.6194E-02(WHEN MIN. R.F.=1)  AT K=   3, I=   2, J=  31
     1 CALLS TO GCG PACKAGE FOR TRANSPORT TIME STEP   2 IN FLOW TIME STEP  88 STRESS PERIOD   2
    11 TOTAL ITERATIONS
=======
 = 0.6695E-02(WHEN MIN. R.F.=1)  AT K=   3, I=   2, J=  30
     1 CALLS TO GCG PACKAGE FOR TRANSPORT TIME STEP   7 IN FLOW TIME STEP  86 STRESS PERIOD   2
    16 TOTAL ITERATIONS
>>>>>>> Stashed changes
 
 SOLVING FOR HEAD 
 FLOW MODEL IS TRANSIENT
 FLOW MODEL CONTAINS CONSTANT-HEAD CELLS


 MAXIMUM STEPSIZE DURING WHICH ANY PARTICLE CANNOT MOVE MORE THAN ONE CELL
<<<<<<< Updated upstream
 = 0.1632    (WHEN MIN. R.F.=1)  AT K=   3, I=   2, J=  29

 MAXIMUM STEPSIZE WHICH MEETS STABILITY CRITERION OF THE ADVECTION TERM
 (FOR PURE FINITE-DIFFERENCE OPTION, MIXELM=0) 
 = 0.1132    (WHEN MIN. R.F.=1)  AT K=   3, I=   2, J=  28
=======
 = 0.1869    (WHEN MIN. R.F.=1)  AT K=   3, I=   2, J=  31

 MAXIMUM STEPSIZE WHICH MEETS STABILITY CRITERION OF THE ADVECTION TERM
 (FOR PURE FINITE-DIFFERENCE OPTION, MIXELM=0) 
 = 0.1248    (WHEN MIN. R.F.=1)  AT K=   3, I=   2, J=  30
>>>>>>> Stashed changes


 TOTAL NUMBER OF POINT SOURCES/SINKS PRESENT IN THE FLOW MODEL =   240

 MAXIMUM STEPSIZE WHICH MEETS STABILITY CRITERION OF THE SINK & SOURCE TERM
 = 0.1000E+31(WHEN MIN. R.F.=1)  AT K=   0, I=   0, J=   0

 MAXIMUM STEPSIZE WHICH MEETS STABILITY CRITERION OF THE DISPERSION TERM
<<<<<<< Updated upstream
 = 0.6194E-02(WHEN MIN. R.F.=1)  AT K=   3, I=   2, J=  31
     1 CALLS TO GCG PACKAGE FOR TRANSPORT TIME STEP   3 IN FLOW TIME STEP  88 STRESS PERIOD   2
    12 TOTAL ITERATIONS
 
 SOLVING FOR HEAD 
 FLOW MODEL IS TRANSIENT
 FLOW MODEL CONTAINS CONSTANT-HEAD CELLS


 MAXIMUM STEPSIZE DURING WHICH ANY PARTICLE CANNOT MOVE MORE THAN ONE CELL
 = 0.1632    (WHEN MIN. R.F.=1)  AT K=   3, I=   2, J=  29

 MAXIMUM STEPSIZE WHICH MEETS STABILITY CRITERION OF THE ADVECTION TERM
 (FOR PURE FINITE-DIFFERENCE OPTION, MIXELM=0) 
 = 0.1132    (WHEN MIN. R.F.=1)  AT K=   3, I=   2, J=  28
=======
 = 0.6695E-02(WHEN MIN. R.F.=1)  AT K=   3, I=   2, J=  30
     1 CALLS TO GCG PACKAGE FOR TRANSPORT TIME STEP   8 IN FLOW TIME STEP  86 STRESS PERIOD   2
     4 TOTAL ITERATIONS
  MAXIMUM CONCENTRATION CHANGES FOR EACH ITERATION:
  MAX. CHANGE LAYER,ROW,COL MAX. CHANGE LAYER,ROW,COL MAX. CHANGE LAYER,ROW,COL MAX. CHANGE LAYER,ROW,COL MAX. CHANGE LAYER,ROW,COL
 ------------------------------------------------------------------------------------------------------------------------------------
   0.9186E-04 ( 14,  2, 56)  0.2352E-05 (  5,  2, 63)  0.4032E-06 (  4,  2, 56)  0.9755E-07 (  3,  2, 44)
 UBDSV1 SAVING "         STORAGE" ON UNIT  53 AT TIME STEP 86, STRESS PERIOD   2
 UBDSV2 SAVING "   CONSTANT HEAD" ON UNIT  53 AT TIME STEP 86, STRESS PERIOD   2
 UBDSV1 SAVING "FLOW RIGHT FACE " ON UNIT  53 AT TIME STEP 86, STRESS PERIOD   2
 UBDSV1 SAVING "FLOW FRONT FACE " ON UNIT  53 AT TIME STEP 86, STRESS PERIOD   2
 UBDSV1 SAVING "FLOW LOWER FACE " ON UNIT  53 AT TIME STEP 86, STRESS PERIOD   2
 UBDSV1 SAVING "            DCDT" ON UNIT  53 AT TIME STEP 86, STRESS PERIOD   2
>>>>>>> Stashed changes

 HEAD WILL BE SAVED ON UNIT   51 AT END OF TIME STEP  86, STRESS PERIOD    2


                                          ================================================
                                                         FROM TIME =   87.000     TO    88.000    

<<<<<<< Updated upstream
 MAXIMUM STEPSIZE WHICH MEETS STABILITY CRITERION OF THE DISPERSION TERM
 = 0.6194E-02(WHEN MIN. R.F.=1)  AT K=   3, I=   2, J=  31
     1 CALLS TO GCG PACKAGE FOR TRANSPORT TIME STEP   4 IN FLOW TIME STEP  88 STRESS PERIOD   2
    12 TOTAL ITERATIONS
=======
>>>>>>> Stashed changes
 
 SOLVING FOR HEAD 
 FLOW MODEL IS TRANSIENT
 FLOW MODEL CONTAINS CONSTANT-HEAD CELLS


 MAXIMUM STEPSIZE DURING WHICH ANY PARTICLE CANNOT MOVE MORE THAN ONE CELL
<<<<<<< Updated upstream
 = 0.1632    (WHEN MIN. R.F.=1)  AT K=   3, I=   2, J=  29

 MAXIMUM STEPSIZE WHICH MEETS STABILITY CRITERION OF THE ADVECTION TERM
 (FOR PURE FINITE-DIFFERENCE OPTION, MIXELM=0) 
 = 0.1132    (WHEN MIN. R.F.=1)  AT K=   3, I=   2, J=  28
=======
 = 0.1869    (WHEN MIN. R.F.=1)  AT K=   3, I=   2, J=  31

 MAXIMUM STEPSIZE WHICH MEETS STABILITY CRITERION OF THE ADVECTION TERM
 (FOR PURE FINITE-DIFFERENCE OPTION, MIXELM=0) 
 = 0.1248    (WHEN MIN. R.F.=1)  AT K=   3, I=   2, J=  30
>>>>>>> Stashed changes


 TOTAL NUMBER OF POINT SOURCES/SINKS PRESENT IN THE FLOW MODEL =   240

 MAXIMUM STEPSIZE WHICH MEETS STABILITY CRITERION OF THE SINK & SOURCE TERM
 = 0.1000E+31(WHEN MIN. R.F.=1)  AT K=   0, I=   0, J=   0

 MAXIMUM STEPSIZE WHICH MEETS STABILITY CRITERION OF THE DISPERSION TERM
<<<<<<< Updated upstream
 = 0.6194E-02(WHEN MIN. R.F.=1)  AT K=   3, I=   2, J=  31
     1 CALLS TO GCG PACKAGE FOR TRANSPORT TIME STEP   5 IN FLOW TIME STEP  88 STRESS PERIOD   2
    11 TOTAL ITERATIONS
 
 SOLVING FOR HEAD 
 FLOW MODEL IS TRANSIENT
 FLOW MODEL CONTAINS CONSTANT-HEAD CELLS


 MAXIMUM STEPSIZE DURING WHICH ANY PARTICLE CANNOT MOVE MORE THAN ONE CELL
 = 0.1632    (WHEN MIN. R.F.=1)  AT K=   3, I=   2, J=  29

 MAXIMUM STEPSIZE WHICH MEETS STABILITY CRITERION OF THE ADVECTION TERM
 (FOR PURE FINITE-DIFFERENCE OPTION, MIXELM=0) 
 = 0.1132    (WHEN MIN. R.F.=1)  AT K=   3, I=   2, J=  28


 TOTAL NUMBER OF POINT SOURCES/SINKS PRESENT IN THE FLOW MODEL =   240

 MAXIMUM STEPSIZE WHICH MEETS STABILITY CRITERION OF THE SINK & SOURCE TERM
 = 0.1000E+31(WHEN MIN. R.F.=1)  AT K=   0, I=   0, J=   0

 MAXIMUM STEPSIZE WHICH MEETS STABILITY CRITERION OF THE DISPERSION TERM
 = 0.6194E-02(WHEN MIN. R.F.=1)  AT K=   3, I=   2, J=  31
     1 CALLS TO GCG PACKAGE FOR TRANSPORT TIME STEP   6 IN FLOW TIME STEP  88 STRESS PERIOD   2
    12 TOTAL ITERATIONS
=======
 = 0.6695E-02(WHEN MIN. R.F.=1)  AT K=   3, I=   2, J=  30


     1 CALLS TO GCG PACKAGE FOR TRANSPORT TIME STEP   1 IN FLOW TIME STEP  87 STRESS PERIOD   2
    13 TOTAL ITERATIONS

 OUTPUT CONTROL FOR STRESS PERIOD    2   TIME STEP  87
    SAVE HEAD FOR ALL LAYERS
    SAVE BUDGET
>>>>>>> Stashed changes
 
 SOLVING FOR HEAD 
 FLOW MODEL IS TRANSIENT
 FLOW MODEL CONTAINS CONSTANT-HEAD CELLS


 MAXIMUM STEPSIZE DURING WHICH ANY PARTICLE CANNOT MOVE MORE THAN ONE CELL
<<<<<<< Updated upstream
 = 0.1632    (WHEN MIN. R.F.=1)  AT K=   3, I=   2, J=  29

 MAXIMUM STEPSIZE WHICH MEETS STABILITY CRITERION OF THE ADVECTION TERM
 (FOR PURE FINITE-DIFFERENCE OPTION, MIXELM=0) 
 = 0.1132    (WHEN MIN. R.F.=1)  AT K=   3, I=   2, J=  28
=======
 = 0.1869    (WHEN MIN. R.F.=1)  AT K=   3, I=   2, J=  31

 MAXIMUM STEPSIZE WHICH MEETS STABILITY CRITERION OF THE ADVECTION TERM
 (FOR PURE FINITE-DIFFERENCE OPTION, MIXELM=0) 
 = 0.1248    (WHEN MIN. R.F.=1)  AT K=   3, I=   2, J=  30
>>>>>>> Stashed changes


 TOTAL NUMBER OF POINT SOURCES/SINKS PRESENT IN THE FLOW MODEL =   240

 MAXIMUM STEPSIZE WHICH MEETS STABILITY CRITERION OF THE SINK & SOURCE TERM
 = 0.1000E+31(WHEN MIN. R.F.=1)  AT K=   0, I=   0, J=   0

 MAXIMUM STEPSIZE WHICH MEETS STABILITY CRITERION OF THE DISPERSION TERM
<<<<<<< Updated upstream
 = 0.6194E-02(WHEN MIN. R.F.=1)  AT K=   3, I=   2, J=  31
     1 CALLS TO GCG PACKAGE FOR TRANSPORT TIME STEP   7 IN FLOW TIME STEP  88 STRESS PERIOD   2
    11 TOTAL ITERATIONS
=======
 = 0.6695E-02(WHEN MIN. R.F.=1)  AT K=   3, I=   2, J=  30
     1 CALLS TO GCG PACKAGE FOR TRANSPORT TIME STEP   2 IN FLOW TIME STEP  87 STRESS PERIOD   2
    14 TOTAL ITERATIONS
>>>>>>> Stashed changes
 
 SOLVING FOR HEAD 
 FLOW MODEL IS TRANSIENT
 FLOW MODEL CONTAINS CONSTANT-HEAD CELLS


 MAXIMUM STEPSIZE DURING WHICH ANY PARTICLE CANNOT MOVE MORE THAN ONE CELL
<<<<<<< Updated upstream
 = 0.1632    (WHEN MIN. R.F.=1)  AT K=   3, I=   2, J=  29

 MAXIMUM STEPSIZE WHICH MEETS STABILITY CRITERION OF THE ADVECTION TERM
 (FOR PURE FINITE-DIFFERENCE OPTION, MIXELM=0) 
 = 0.1132    (WHEN MIN. R.F.=1)  AT K=   3, I=   2, J=  28
=======
 = 0.1869    (WHEN MIN. R.F.=1)  AT K=   3, I=   2, J=  31

 MAXIMUM STEPSIZE WHICH MEETS STABILITY CRITERION OF THE ADVECTION TERM
 (FOR PURE FINITE-DIFFERENCE OPTION, MIXELM=0) 
 = 0.1248    (WHEN MIN. R.F.=1)  AT K=   3, I=   2, J=  30
>>>>>>> Stashed changes


 TOTAL NUMBER OF POINT SOURCES/SINKS PRESENT IN THE FLOW MODEL =   240

 MAXIMUM STEPSIZE WHICH MEETS STABILITY CRITERION OF THE SINK & SOURCE TERM
 = 0.1000E+31(WHEN MIN. R.F.=1)  AT K=   0, I=   0, J=   0

 MAXIMUM STEPSIZE WHICH MEETS STABILITY CRITERION OF THE DISPERSION TERM
<<<<<<< Updated upstream
 = 0.6194E-02(WHEN MIN. R.F.=1)  AT K=   3, I=   2, J=  31
     1 CALLS TO GCG PACKAGE FOR TRANSPORT TIME STEP   8 IN FLOW TIME STEP  88 STRESS PERIOD   2
=======
 = 0.6695E-02(WHEN MIN. R.F.=1)  AT K=   3, I=   2, J=  30
     1 CALLS TO GCG PACKAGE FOR TRANSPORT TIME STEP   3 IN FLOW TIME STEP  87 STRESS PERIOD   2
>>>>>>> Stashed changes
    12 TOTAL ITERATIONS
 
 SOLVING FOR HEAD 
 FLOW MODEL IS TRANSIENT
 FLOW MODEL CONTAINS CONSTANT-HEAD CELLS


 MAXIMUM STEPSIZE DURING WHICH ANY PARTICLE CANNOT MOVE MORE THAN ONE CELL
<<<<<<< Updated upstream
 = 0.1632    (WHEN MIN. R.F.=1)  AT K=   3, I=   2, J=  29

 MAXIMUM STEPSIZE WHICH MEETS STABILITY CRITERION OF THE ADVECTION TERM
 (FOR PURE FINITE-DIFFERENCE OPTION, MIXELM=0) 
 = 0.1132    (WHEN MIN. R.F.=1)  AT K=   3, I=   2, J=  28
=======
 = 0.1869    (WHEN MIN. R.F.=1)  AT K=   3, I=   2, J=  31

 MAXIMUM STEPSIZE WHICH MEETS STABILITY CRITERION OF THE ADVECTION TERM
 (FOR PURE FINITE-DIFFERENCE OPTION, MIXELM=0) 
 = 0.1248    (WHEN MIN. R.F.=1)  AT K=   3, I=   2, J=  30
>>>>>>> Stashed changes


 TOTAL NUMBER OF POINT SOURCES/SINKS PRESENT IN THE FLOW MODEL =   240

 MAXIMUM STEPSIZE WHICH MEETS STABILITY CRITERION OF THE SINK & SOURCE TERM
 = 0.1000E+31(WHEN MIN. R.F.=1)  AT K=   0, I=   0, J=   0

 MAXIMUM STEPSIZE WHICH MEETS STABILITY CRITERION OF THE DISPERSION TERM
<<<<<<< Updated upstream
 = 0.6194E-02(WHEN MIN. R.F.=1)  AT K=   3, I=   2, J=  31
     1 CALLS TO GCG PACKAGE FOR TRANSPORT TIME STEP   9 IN FLOW TIME STEP  88 STRESS PERIOD   2
     4 TOTAL ITERATIONS
  MAXIMUM CONCENTRATION CHANGES FOR EACH ITERATION:
  MAX. CHANGE LAYER,ROW,COL MAX. CHANGE LAYER,ROW,COL MAX. CHANGE LAYER,ROW,COL MAX. CHANGE LAYER,ROW,COL MAX. CHANGE LAYER,ROW,COL
 ------------------------------------------------------------------------------------------------------------------------------------
   0.1333E-03 ( 13,  3, 55)  0.3706E-05 (  5,  2, 65)  0.6470E-06 (  6,  1, 56)  0.7574E-07 (  6,  1, 54)


                                          ================================================
                                                         FROM TIME =   89.000     TO    90.000    

=======
 = 0.6695E-02(WHEN MIN. R.F.=1)  AT K=   3, I=   2, J=  30
     1 CALLS TO GCG PACKAGE FOR TRANSPORT TIME STEP   4 IN FLOW TIME STEP  87 STRESS PERIOD   2
    13 TOTAL ITERATIONS
>>>>>>> Stashed changes
 
 SOLVING FOR HEAD 
 FLOW MODEL IS TRANSIENT
 FLOW MODEL CONTAINS CONSTANT-HEAD CELLS


 MAXIMUM STEPSIZE DURING WHICH ANY PARTICLE CANNOT MOVE MORE THAN ONE CELL
<<<<<<< Updated upstream
 = 0.1632    (WHEN MIN. R.F.=1)  AT K=   3, I=   2, J=  29

 MAXIMUM STEPSIZE WHICH MEETS STABILITY CRITERION OF THE ADVECTION TERM
 (FOR PURE FINITE-DIFFERENCE OPTION, MIXELM=0) 
 = 0.1132    (WHEN MIN. R.F.=1)  AT K=   3, I=   2, J=  28
=======
 = 0.1869    (WHEN MIN. R.F.=1)  AT K=   3, I=   2, J=  31

 MAXIMUM STEPSIZE WHICH MEETS STABILITY CRITERION OF THE ADVECTION TERM
 (FOR PURE FINITE-DIFFERENCE OPTION, MIXELM=0) 
 = 0.1248    (WHEN MIN. R.F.=1)  AT K=   3, I=   2, J=  30
>>>>>>> Stashed changes


 TOTAL NUMBER OF POINT SOURCES/SINKS PRESENT IN THE FLOW MODEL =   240

 MAXIMUM STEPSIZE WHICH MEETS STABILITY CRITERION OF THE SINK & SOURCE TERM
 = 0.1000E+31(WHEN MIN. R.F.=1)  AT K=   0, I=   0, J=   0

 MAXIMUM STEPSIZE WHICH MEETS STABILITY CRITERION OF THE DISPERSION TERM
<<<<<<< Updated upstream
 = 0.6194E-02(WHEN MIN. R.F.=1)  AT K=   3, I=   2, J=  31


     1 CALLS TO GCG PACKAGE FOR TRANSPORT TIME STEP   1 IN FLOW TIME STEP  89 STRESS PERIOD   2
    12 TOTAL ITERATIONS

 NO OUTPUT CONTROL FOR STRESS PERIOD    2   TIME STEP  89
=======
 = 0.6695E-02(WHEN MIN. R.F.=1)  AT K=   3, I=   2, J=  30
     1 CALLS TO GCG PACKAGE FOR TRANSPORT TIME STEP   5 IN FLOW TIME STEP  87 STRESS PERIOD   2
    13 TOTAL ITERATIONS
>>>>>>> Stashed changes
 
 SOLVING FOR HEAD 
 FLOW MODEL IS TRANSIENT
 FLOW MODEL CONTAINS CONSTANT-HEAD CELLS


 MAXIMUM STEPSIZE DURING WHICH ANY PARTICLE CANNOT MOVE MORE THAN ONE CELL
<<<<<<< Updated upstream
 = 0.1632    (WHEN MIN. R.F.=1)  AT K=   3, I=   2, J=  29

 MAXIMUM STEPSIZE WHICH MEETS STABILITY CRITERION OF THE ADVECTION TERM
 (FOR PURE FINITE-DIFFERENCE OPTION, MIXELM=0) 
 = 0.1132    (WHEN MIN. R.F.=1)  AT K=   3, I=   2, J=  28
=======
 = 0.1869    (WHEN MIN. R.F.=1)  AT K=   3, I=   2, J=  31

 MAXIMUM STEPSIZE WHICH MEETS STABILITY CRITERION OF THE ADVECTION TERM
 (FOR PURE FINITE-DIFFERENCE OPTION, MIXELM=0) 
 = 0.1248    (WHEN MIN. R.F.=1)  AT K=   3, I=   2, J=  30
>>>>>>> Stashed changes


 TOTAL NUMBER OF POINT SOURCES/SINKS PRESENT IN THE FLOW MODEL =   240

 MAXIMUM STEPSIZE WHICH MEETS STABILITY CRITERION OF THE SINK & SOURCE TERM
 = 0.1000E+31(WHEN MIN. R.F.=1)  AT K=   0, I=   0, J=   0

 MAXIMUM STEPSIZE WHICH MEETS STABILITY CRITERION OF THE DISPERSION TERM
<<<<<<< Updated upstream
 = 0.6194E-02(WHEN MIN. R.F.=1)  AT K=   3, I=   2, J=  31
     1 CALLS TO GCG PACKAGE FOR TRANSPORT TIME STEP   2 IN FLOW TIME STEP  89 STRESS PERIOD   2
    11 TOTAL ITERATIONS
=======
 = 0.6695E-02(WHEN MIN. R.F.=1)  AT K=   3, I=   2, J=  30
     1 CALLS TO GCG PACKAGE FOR TRANSPORT TIME STEP   6 IN FLOW TIME STEP  87 STRESS PERIOD   2
    13 TOTAL ITERATIONS
>>>>>>> Stashed changes
 
 SOLVING FOR HEAD 
 FLOW MODEL IS TRANSIENT
 FLOW MODEL CONTAINS CONSTANT-HEAD CELLS


 MAXIMUM STEPSIZE DURING WHICH ANY PARTICLE CANNOT MOVE MORE THAN ONE CELL
<<<<<<< Updated upstream
 = 0.1632    (WHEN MIN. R.F.=1)  AT K=   3, I=   2, J=  29

 MAXIMUM STEPSIZE WHICH MEETS STABILITY CRITERION OF THE ADVECTION TERM
 (FOR PURE FINITE-DIFFERENCE OPTION, MIXELM=0) 
 = 0.1132    (WHEN MIN. R.F.=1)  AT K=   3, I=   2, J=  28
=======
 = 0.1869    (WHEN MIN. R.F.=1)  AT K=   3, I=   2, J=  31

 MAXIMUM STEPSIZE WHICH MEETS STABILITY CRITERION OF THE ADVECTION TERM
 (FOR PURE FINITE-DIFFERENCE OPTION, MIXELM=0) 
 = 0.1248    (WHEN MIN. R.F.=1)  AT K=   3, I=   2, J=  30
>>>>>>> Stashed changes


 TOTAL NUMBER OF POINT SOURCES/SINKS PRESENT IN THE FLOW MODEL =   240

 MAXIMUM STEPSIZE WHICH MEETS STABILITY CRITERION OF THE SINK & SOURCE TERM
 = 0.1000E+31(WHEN MIN. R.F.=1)  AT K=   0, I=   0, J=   0

 MAXIMUM STEPSIZE WHICH MEETS STABILITY CRITERION OF THE DISPERSION TERM
<<<<<<< Updated upstream
 = 0.6194E-02(WHEN MIN. R.F.=1)  AT K=   3, I=   2, J=  31
     1 CALLS TO GCG PACKAGE FOR TRANSPORT TIME STEP   3 IN FLOW TIME STEP  89 STRESS PERIOD   2
    11 TOTAL ITERATIONS
=======
 = 0.6695E-02(WHEN MIN. R.F.=1)  AT K=   3, I=   2, J=  30
     1 CALLS TO GCG PACKAGE FOR TRANSPORT TIME STEP   7 IN FLOW TIME STEP  87 STRESS PERIOD   2
    13 TOTAL ITERATIONS
>>>>>>> Stashed changes
 
 SOLVING FOR HEAD 
 FLOW MODEL IS TRANSIENT
 FLOW MODEL CONTAINS CONSTANT-HEAD CELLS


 MAXIMUM STEPSIZE DURING WHICH ANY PARTICLE CANNOT MOVE MORE THAN ONE CELL
<<<<<<< Updated upstream
 = 0.1632    (WHEN MIN. R.F.=1)  AT K=   3, I=   2, J=  29

 MAXIMUM STEPSIZE WHICH MEETS STABILITY CRITERION OF THE ADVECTION TERM
 (FOR PURE FINITE-DIFFERENCE OPTION, MIXELM=0) 
 = 0.1132    (WHEN MIN. R.F.=1)  AT K=   3, I=   2, J=  28
=======
 = 0.1869    (WHEN MIN. R.F.=1)  AT K=   3, I=   2, J=  31

 MAXIMUM STEPSIZE WHICH MEETS STABILITY CRITERION OF THE ADVECTION TERM
 (FOR PURE FINITE-DIFFERENCE OPTION, MIXELM=0) 
 = 0.1248    (WHEN MIN. R.F.=1)  AT K=   3, I=   2, J=  30
>>>>>>> Stashed changes


 TOTAL NUMBER OF POINT SOURCES/SINKS PRESENT IN THE FLOW MODEL =   240

 MAXIMUM STEPSIZE WHICH MEETS STABILITY CRITERION OF THE SINK & SOURCE TERM
 = 0.1000E+31(WHEN MIN. R.F.=1)  AT K=   0, I=   0, J=   0

 MAXIMUM STEPSIZE WHICH MEETS STABILITY CRITERION OF THE DISPERSION TERM
<<<<<<< Updated upstream
 = 0.6194E-02(WHEN MIN. R.F.=1)  AT K=   3, I=   2, J=  31
     1 CALLS TO GCG PACKAGE FOR TRANSPORT TIME STEP   4 IN FLOW TIME STEP  89 STRESS PERIOD   2
    11 TOTAL ITERATIONS
=======
 = 0.6695E-02(WHEN MIN. R.F.=1)  AT K=   3, I=   2, J=  30
     1 CALLS TO GCG PACKAGE FOR TRANSPORT TIME STEP   8 IN FLOW TIME STEP  87 STRESS PERIOD   2
     4 TOTAL ITERATIONS
  MAXIMUM CONCENTRATION CHANGES FOR EACH ITERATION:
  MAX. CHANGE LAYER,ROW,COL MAX. CHANGE LAYER,ROW,COL MAX. CHANGE LAYER,ROW,COL MAX. CHANGE LAYER,ROW,COL MAX. CHANGE LAYER,ROW,COL
 ------------------------------------------------------------------------------------------------------------------------------------
   0.9076E-04 ( 14,  2, 56)  0.2298E-05 (  5,  2, 63)  0.3924E-06 (  4,  2, 56)  0.8991E-07 (  3,  2, 44)
 UBDSV1 SAVING "         STORAGE" ON UNIT  53 AT TIME STEP 87, STRESS PERIOD   2
 UBDSV2 SAVING "   CONSTANT HEAD" ON UNIT  53 AT TIME STEP 87, STRESS PERIOD   2
 UBDSV1 SAVING "FLOW RIGHT FACE " ON UNIT  53 AT TIME STEP 87, STRESS PERIOD   2
 UBDSV1 SAVING "FLOW FRONT FACE " ON UNIT  53 AT TIME STEP 87, STRESS PERIOD   2
 UBDSV1 SAVING "FLOW LOWER FACE " ON UNIT  53 AT TIME STEP 87, STRESS PERIOD   2
 UBDSV1 SAVING "            DCDT" ON UNIT  53 AT TIME STEP 87, STRESS PERIOD   2

 HEAD WILL BE SAVED ON UNIT   51 AT END OF TIME STEP  87, STRESS PERIOD    2


                                          ================================================
                                                         FROM TIME =   88.000     TO    89.000    

>>>>>>> Stashed changes
 
 SOLVING FOR HEAD 
 FLOW MODEL IS TRANSIENT
 FLOW MODEL CONTAINS CONSTANT-HEAD CELLS


 MAXIMUM STEPSIZE DURING WHICH ANY PARTICLE CANNOT MOVE MORE THAN ONE CELL
<<<<<<< Updated upstream
 = 0.1632    (WHEN MIN. R.F.=1)  AT K=   3, I=   2, J=  29

 MAXIMUM STEPSIZE WHICH MEETS STABILITY CRITERION OF THE ADVECTION TERM
 (FOR PURE FINITE-DIFFERENCE OPTION, MIXELM=0) 
 = 0.1132    (WHEN MIN. R.F.=1)  AT K=   3, I=   2, J=  28
=======
 = 0.1869    (WHEN MIN. R.F.=1)  AT K=   3, I=   2, J=  31

 MAXIMUM STEPSIZE WHICH MEETS STABILITY CRITERION OF THE ADVECTION TERM
 (FOR PURE FINITE-DIFFERENCE OPTION, MIXELM=0) 
 = 0.1248    (WHEN MIN. R.F.=1)  AT K=   3, I=   2, J=  30
>>>>>>> Stashed changes


 TOTAL NUMBER OF POINT SOURCES/SINKS PRESENT IN THE FLOW MODEL =   240

 MAXIMUM STEPSIZE WHICH MEETS STABILITY CRITERION OF THE SINK & SOURCE TERM
 = 0.1000E+31(WHEN MIN. R.F.=1)  AT K=   0, I=   0, J=   0

 MAXIMUM STEPSIZE WHICH MEETS STABILITY CRITERION OF THE DISPERSION TERM
<<<<<<< Updated upstream
 = 0.6194E-02(WHEN MIN. R.F.=1)  AT K=   3, I=   2, J=  31
     1 CALLS TO GCG PACKAGE FOR TRANSPORT TIME STEP   5 IN FLOW TIME STEP  89 STRESS PERIOD   2
    11 TOTAL ITERATIONS
=======
 = 0.6695E-02(WHEN MIN. R.F.=1)  AT K=   3, I=   2, J=  30


     1 CALLS TO GCG PACKAGE FOR TRANSPORT TIME STEP   1 IN FLOW TIME STEP  88 STRESS PERIOD   2
    13 TOTAL ITERATIONS

 OUTPUT CONTROL FOR STRESS PERIOD    2   TIME STEP  88
    SAVE HEAD FOR ALL LAYERS
    SAVE BUDGET
>>>>>>> Stashed changes
 
 SOLVING FOR HEAD 
 FLOW MODEL IS TRANSIENT
 FLOW MODEL CONTAINS CONSTANT-HEAD CELLS


 MAXIMUM STEPSIZE DURING WHICH ANY PARTICLE CANNOT MOVE MORE THAN ONE CELL
<<<<<<< Updated upstream
 = 0.1632    (WHEN MIN. R.F.=1)  AT K=   3, I=   2, J=  29

 MAXIMUM STEPSIZE WHICH MEETS STABILITY CRITERION OF THE ADVECTION TERM
 (FOR PURE FINITE-DIFFERENCE OPTION, MIXELM=0) 
 = 0.1132    (WHEN MIN. R.F.=1)  AT K=   3, I=   2, J=  28
=======
 = 0.1869    (WHEN MIN. R.F.=1)  AT K=   3, I=   2, J=  31

 MAXIMUM STEPSIZE WHICH MEETS STABILITY CRITERION OF THE ADVECTION TERM
 (FOR PURE FINITE-DIFFERENCE OPTION, MIXELM=0) 
 = 0.1248    (WHEN MIN. R.F.=1)  AT K=   3, I=   2, J=  30
>>>>>>> Stashed changes


 TOTAL NUMBER OF POINT SOURCES/SINKS PRESENT IN THE FLOW MODEL =   240

 MAXIMUM STEPSIZE WHICH MEETS STABILITY CRITERION OF THE SINK & SOURCE TERM
 = 0.1000E+31(WHEN MIN. R.F.=1)  AT K=   0, I=   0, J=   0

 MAXIMUM STEPSIZE WHICH MEETS STABILITY CRITERION OF THE DISPERSION TERM
<<<<<<< Updated upstream
 = 0.6194E-02(WHEN MIN. R.F.=1)  AT K=   3, I=   2, J=  31
     1 CALLS TO GCG PACKAGE FOR TRANSPORT TIME STEP   6 IN FLOW TIME STEP  89 STRESS PERIOD   2
    12 TOTAL ITERATIONS
=======
 = 0.6695E-02(WHEN MIN. R.F.=1)  AT K=   3, I=   2, J=  30
     1 CALLS TO GCG PACKAGE FOR TRANSPORT TIME STEP   2 IN FLOW TIME STEP  88 STRESS PERIOD   2
    13 TOTAL ITERATIONS
>>>>>>> Stashed changes
 
 SOLVING FOR HEAD 
 FLOW MODEL IS TRANSIENT
 FLOW MODEL CONTAINS CONSTANT-HEAD CELLS


 MAXIMUM STEPSIZE DURING WHICH ANY PARTICLE CANNOT MOVE MORE THAN ONE CELL
<<<<<<< Updated upstream
 = 0.1632    (WHEN MIN. R.F.=1)  AT K=   3, I=   2, J=  29

 MAXIMUM STEPSIZE WHICH MEETS STABILITY CRITERION OF THE ADVECTION TERM
 (FOR PURE FINITE-DIFFERENCE OPTION, MIXELM=0) 
 = 0.1132    (WHEN MIN. R.F.=1)  AT K=   3, I=   2, J=  28
=======
 = 0.1869    (WHEN MIN. R.F.=1)  AT K=   3, I=   2, J=  31

 MAXIMUM STEPSIZE WHICH MEETS STABILITY CRITERION OF THE ADVECTION TERM
 (FOR PURE FINITE-DIFFERENCE OPTION, MIXELM=0) 
 = 0.1248    (WHEN MIN. R.F.=1)  AT K=   3, I=   2, J=  30
>>>>>>> Stashed changes


 TOTAL NUMBER OF POINT SOURCES/SINKS PRESENT IN THE FLOW MODEL =   240

 MAXIMUM STEPSIZE WHICH MEETS STABILITY CRITERION OF THE SINK & SOURCE TERM
 = 0.1000E+31(WHEN MIN. R.F.=1)  AT K=   0, I=   0, J=   0

 MAXIMUM STEPSIZE WHICH MEETS STABILITY CRITERION OF THE DISPERSION TERM
<<<<<<< Updated upstream
 = 0.6194E-02(WHEN MIN. R.F.=1)  AT K=   3, I=   2, J=  31
     1 CALLS TO GCG PACKAGE FOR TRANSPORT TIME STEP   7 IN FLOW TIME STEP  89 STRESS PERIOD   2
    11 TOTAL ITERATIONS
=======
 = 0.6695E-02(WHEN MIN. R.F.=1)  AT K=   3, I=   2, J=  30
     1 CALLS TO GCG PACKAGE FOR TRANSPORT TIME STEP   3 IN FLOW TIME STEP  88 STRESS PERIOD   2
    13 TOTAL ITERATIONS
>>>>>>> Stashed changes
 
 SOLVING FOR HEAD 
 FLOW MODEL IS TRANSIENT
 FLOW MODEL CONTAINS CONSTANT-HEAD CELLS


 MAXIMUM STEPSIZE DURING WHICH ANY PARTICLE CANNOT MOVE MORE THAN ONE CELL
<<<<<<< Updated upstream
 = 0.1632    (WHEN MIN. R.F.=1)  AT K=   3, I=   2, J=  29

 MAXIMUM STEPSIZE WHICH MEETS STABILITY CRITERION OF THE ADVECTION TERM
 (FOR PURE FINITE-DIFFERENCE OPTION, MIXELM=0) 
 = 0.1132    (WHEN MIN. R.F.=1)  AT K=   3, I=   2, J=  28
=======
 = 0.1869    (WHEN MIN. R.F.=1)  AT K=   3, I=   2, J=  31

 MAXIMUM STEPSIZE WHICH MEETS STABILITY CRITERION OF THE ADVECTION TERM
 (FOR PURE FINITE-DIFFERENCE OPTION, MIXELM=0) 
 = 0.1248    (WHEN MIN. R.F.=1)  AT K=   3, I=   2, J=  30
>>>>>>> Stashed changes


 TOTAL NUMBER OF POINT SOURCES/SINKS PRESENT IN THE FLOW MODEL =   240

 MAXIMUM STEPSIZE WHICH MEETS STABILITY CRITERION OF THE SINK & SOURCE TERM
 = 0.1000E+31(WHEN MIN. R.F.=1)  AT K=   0, I=   0, J=   0

 MAXIMUM STEPSIZE WHICH MEETS STABILITY CRITERION OF THE DISPERSION TERM
<<<<<<< Updated upstream
 = 0.6194E-02(WHEN MIN. R.F.=1)  AT K=   3, I=   2, J=  31
     1 CALLS TO GCG PACKAGE FOR TRANSPORT TIME STEP   8 IN FLOW TIME STEP  89 STRESS PERIOD   2
    11 TOTAL ITERATIONS
=======
 = 0.6695E-02(WHEN MIN. R.F.=1)  AT K=   3, I=   2, J=  30
     1 CALLS TO GCG PACKAGE FOR TRANSPORT TIME STEP   4 IN FLOW TIME STEP  88 STRESS PERIOD   2
    13 TOTAL ITERATIONS
>>>>>>> Stashed changes
 
 SOLVING FOR HEAD 
 FLOW MODEL IS TRANSIENT
 FLOW MODEL CONTAINS CONSTANT-HEAD CELLS


 MAXIMUM STEPSIZE DURING WHICH ANY PARTICLE CANNOT MOVE MORE THAN ONE CELL
<<<<<<< Updated upstream
 = 0.1632    (WHEN MIN. R.F.=1)  AT K=   3, I=   2, J=  29

 MAXIMUM STEPSIZE WHICH MEETS STABILITY CRITERION OF THE ADVECTION TERM
 (FOR PURE FINITE-DIFFERENCE OPTION, MIXELM=0) 
 = 0.1132    (WHEN MIN. R.F.=1)  AT K=   3, I=   2, J=  28
=======
 = 0.1869    (WHEN MIN. R.F.=1)  AT K=   3, I=   2, J=  31

 MAXIMUM STEPSIZE WHICH MEETS STABILITY CRITERION OF THE ADVECTION TERM
 (FOR PURE FINITE-DIFFERENCE OPTION, MIXELM=0) 
 = 0.1248    (WHEN MIN. R.F.=1)  AT K=   3, I=   2, J=  30
>>>>>>> Stashed changes


 TOTAL NUMBER OF POINT SOURCES/SINKS PRESENT IN THE FLOW MODEL =   240

 MAXIMUM STEPSIZE WHICH MEETS STABILITY CRITERION OF THE SINK & SOURCE TERM
 = 0.1000E+31(WHEN MIN. R.F.=1)  AT K=   0, I=   0, J=   0

 MAXIMUM STEPSIZE WHICH MEETS STABILITY CRITERION OF THE DISPERSION TERM
<<<<<<< Updated upstream
 = 0.6194E-02(WHEN MIN. R.F.=1)  AT K=   3, I=   2, J=  31
     1 CALLS TO GCG PACKAGE FOR TRANSPORT TIME STEP   9 IN FLOW TIME STEP  89 STRESS PERIOD   2
     4 TOTAL ITERATIONS
  MAXIMUM CONCENTRATION CHANGES FOR EACH ITERATION:
  MAX. CHANGE LAYER,ROW,COL MAX. CHANGE LAYER,ROW,COL MAX. CHANGE LAYER,ROW,COL MAX. CHANGE LAYER,ROW,COL MAX. CHANGE LAYER,ROW,COL
 ------------------------------------------------------------------------------------------------------------------------------------
   0.1346E-03 ( 13,  3, 55)  0.3626E-05 (  5,  2, 65)  0.6281E-06 (  6,  1, 56)  0.7455E-07 (  6,  1, 54)


                                          ================================================
                                                         FROM TIME =   90.000     TO    91.000    

=======
 = 0.6695E-02(WHEN MIN. R.F.=1)  AT K=   3, I=   2, J=  30
     1 CALLS TO GCG PACKAGE FOR TRANSPORT TIME STEP   5 IN FLOW TIME STEP  88 STRESS PERIOD   2
    13 TOTAL ITERATIONS
 
 SOLVING FOR HEAD 
 FLOW MODEL IS TRANSIENT
 FLOW MODEL CONTAINS CONSTANT-HEAD CELLS


 MAXIMUM STEPSIZE DURING WHICH ANY PARTICLE CANNOT MOVE MORE THAN ONE CELL
 = 0.1869    (WHEN MIN. R.F.=1)  AT K=   3, I=   2, J=  31

 MAXIMUM STEPSIZE WHICH MEETS STABILITY CRITERION OF THE ADVECTION TERM
 (FOR PURE FINITE-DIFFERENCE OPTION, MIXELM=0) 
 = 0.1248    (WHEN MIN. R.F.=1)  AT K=   3, I=   2, J=  30


 TOTAL NUMBER OF POINT SOURCES/SINKS PRESENT IN THE FLOW MODEL =   240

 MAXIMUM STEPSIZE WHICH MEETS STABILITY CRITERION OF THE SINK & SOURCE TERM
 = 0.1000E+31(WHEN MIN. R.F.=1)  AT K=   0, I=   0, J=   0

 MAXIMUM STEPSIZE WHICH MEETS STABILITY CRITERION OF THE DISPERSION TERM
 = 0.6695E-02(WHEN MIN. R.F.=1)  AT K=   3, I=   2, J=  30
     1 CALLS TO GCG PACKAGE FOR TRANSPORT TIME STEP   6 IN FLOW TIME STEP  88 STRESS PERIOD   2
    13 TOTAL ITERATIONS
>>>>>>> Stashed changes
 
 SOLVING FOR HEAD 
 FLOW MODEL IS TRANSIENT
 FLOW MODEL CONTAINS CONSTANT-HEAD CELLS


 MAXIMUM STEPSIZE DURING WHICH ANY PARTICLE CANNOT MOVE MORE THAN ONE CELL
<<<<<<< Updated upstream
 = 0.1632    (WHEN MIN. R.F.=1)  AT K=   3, I=   2, J=  29

 MAXIMUM STEPSIZE WHICH MEETS STABILITY CRITERION OF THE ADVECTION TERM
 (FOR PURE FINITE-DIFFERENCE OPTION, MIXELM=0) 
 = 0.1132    (WHEN MIN. R.F.=1)  AT K=   3, I=   2, J=  28
=======
 = 0.1869    (WHEN MIN. R.F.=1)  AT K=   3, I=   2, J=  31

 MAXIMUM STEPSIZE WHICH MEETS STABILITY CRITERION OF THE ADVECTION TERM
 (FOR PURE FINITE-DIFFERENCE OPTION, MIXELM=0) 
 = 0.1248    (WHEN MIN. R.F.=1)  AT K=   3, I=   2, J=  30
>>>>>>> Stashed changes


 TOTAL NUMBER OF POINT SOURCES/SINKS PRESENT IN THE FLOW MODEL =   240

 MAXIMUM STEPSIZE WHICH MEETS STABILITY CRITERION OF THE SINK & SOURCE TERM
 = 0.1000E+31(WHEN MIN. R.F.=1)  AT K=   0, I=   0, J=   0

 MAXIMUM STEPSIZE WHICH MEETS STABILITY CRITERION OF THE DISPERSION TERM
<<<<<<< Updated upstream
 = 0.6194E-02(WHEN MIN. R.F.=1)  AT K=   3, I=   2, J=  31


     1 CALLS TO GCG PACKAGE FOR TRANSPORT TIME STEP   1 IN FLOW TIME STEP  90 STRESS PERIOD   2
    11 TOTAL ITERATIONS

 NO OUTPUT CONTROL FOR STRESS PERIOD    2   TIME STEP  90
=======
 = 0.6695E-02(WHEN MIN. R.F.=1)  AT K=   3, I=   2, J=  30
     1 CALLS TO GCG PACKAGE FOR TRANSPORT TIME STEP   7 IN FLOW TIME STEP  88 STRESS PERIOD   2
    13 TOTAL ITERATIONS
>>>>>>> Stashed changes
 
 SOLVING FOR HEAD 
 FLOW MODEL IS TRANSIENT
 FLOW MODEL CONTAINS CONSTANT-HEAD CELLS


 MAXIMUM STEPSIZE DURING WHICH ANY PARTICLE CANNOT MOVE MORE THAN ONE CELL
<<<<<<< Updated upstream
 = 0.1632    (WHEN MIN. R.F.=1)  AT K=   3, I=   2, J=  29

 MAXIMUM STEPSIZE WHICH MEETS STABILITY CRITERION OF THE ADVECTION TERM
 (FOR PURE FINITE-DIFFERENCE OPTION, MIXELM=0) 
 = 0.1132    (WHEN MIN. R.F.=1)  AT K=   3, I=   2, J=  28
=======
 = 0.1869    (WHEN MIN. R.F.=1)  AT K=   3, I=   2, J=  31

 MAXIMUM STEPSIZE WHICH MEETS STABILITY CRITERION OF THE ADVECTION TERM
 (FOR PURE FINITE-DIFFERENCE OPTION, MIXELM=0) 
 = 0.1248    (WHEN MIN. R.F.=1)  AT K=   3, I=   2, J=  30
>>>>>>> Stashed changes


 TOTAL NUMBER OF POINT SOURCES/SINKS PRESENT IN THE FLOW MODEL =   240

 MAXIMUM STEPSIZE WHICH MEETS STABILITY CRITERION OF THE SINK & SOURCE TERM
 = 0.1000E+31(WHEN MIN. R.F.=1)  AT K=   0, I=   0, J=   0

 MAXIMUM STEPSIZE WHICH MEETS STABILITY CRITERION OF THE DISPERSION TERM
<<<<<<< Updated upstream
 = 0.6194E-02(WHEN MIN. R.F.=1)  AT K=   3, I=   2, J=  31
     1 CALLS TO GCG PACKAGE FOR TRANSPORT TIME STEP   2 IN FLOW TIME STEP  90 STRESS PERIOD   2
    11 TOTAL ITERATIONS
=======
 = 0.6695E-02(WHEN MIN. R.F.=1)  AT K=   3, I=   2, J=  30
     1 CALLS TO GCG PACKAGE FOR TRANSPORT TIME STEP   8 IN FLOW TIME STEP  88 STRESS PERIOD   2
     4 TOTAL ITERATIONS
  MAXIMUM CONCENTRATION CHANGES FOR EACH ITERATION:
  MAX. CHANGE LAYER,ROW,COL MAX. CHANGE LAYER,ROW,COL MAX. CHANGE LAYER,ROW,COL MAX. CHANGE LAYER,ROW,COL MAX. CHANGE LAYER,ROW,COL
 ------------------------------------------------------------------------------------------------------------------------------------
   0.8966E-04 ( 14,  2, 56)  0.2245E-05 (  5,  2, 63)  0.3819E-06 (  4,  2, 56)  0.8736E-07 (  3,  2, 44)
 UBDSV1 SAVING "         STORAGE" ON UNIT  53 AT TIME STEP 88, STRESS PERIOD   2
 UBDSV2 SAVING "   CONSTANT HEAD" ON UNIT  53 AT TIME STEP 88, STRESS PERIOD   2
 UBDSV1 SAVING "FLOW RIGHT FACE " ON UNIT  53 AT TIME STEP 88, STRESS PERIOD   2
 UBDSV1 SAVING "FLOW FRONT FACE " ON UNIT  53 AT TIME STEP 88, STRESS PERIOD   2
 UBDSV1 SAVING "FLOW LOWER FACE " ON UNIT  53 AT TIME STEP 88, STRESS PERIOD   2
 UBDSV1 SAVING "            DCDT" ON UNIT  53 AT TIME STEP 88, STRESS PERIOD   2

 HEAD WILL BE SAVED ON UNIT   51 AT END OF TIME STEP  88, STRESS PERIOD    2


                                          ================================================
                                                         FROM TIME =   89.000     TO    90.000    

>>>>>>> Stashed changes
 
 SOLVING FOR HEAD 
 FLOW MODEL IS TRANSIENT
 FLOW MODEL CONTAINS CONSTANT-HEAD CELLS


 MAXIMUM STEPSIZE DURING WHICH ANY PARTICLE CANNOT MOVE MORE THAN ONE CELL
<<<<<<< Updated upstream
 = 0.1632    (WHEN MIN. R.F.=1)  AT K=   3, I=   2, J=  29

 MAXIMUM STEPSIZE WHICH MEETS STABILITY CRITERION OF THE ADVECTION TERM
 (FOR PURE FINITE-DIFFERENCE OPTION, MIXELM=0) 
 = 0.1132    (WHEN MIN. R.F.=1)  AT K=   3, I=   2, J=  28
=======
 = 0.1869    (WHEN MIN. R.F.=1)  AT K=   3, I=   2, J=  31

 MAXIMUM STEPSIZE WHICH MEETS STABILITY CRITERION OF THE ADVECTION TERM
 (FOR PURE FINITE-DIFFERENCE OPTION, MIXELM=0) 
 = 0.1248    (WHEN MIN. R.F.=1)  AT K=   3, I=   2, J=  30
>>>>>>> Stashed changes


 TOTAL NUMBER OF POINT SOURCES/SINKS PRESENT IN THE FLOW MODEL =   240

 MAXIMUM STEPSIZE WHICH MEETS STABILITY CRITERION OF THE SINK & SOURCE TERM
 = 0.1000E+31(WHEN MIN. R.F.=1)  AT K=   0, I=   0, J=   0

 MAXIMUM STEPSIZE WHICH MEETS STABILITY CRITERION OF THE DISPERSION TERM
<<<<<<< Updated upstream
 = 0.6194E-02(WHEN MIN. R.F.=1)  AT K=   3, I=   2, J=  31
     1 CALLS TO GCG PACKAGE FOR TRANSPORT TIME STEP   3 IN FLOW TIME STEP  90 STRESS PERIOD   2
    12 TOTAL ITERATIONS
=======
 = 0.6695E-02(WHEN MIN. R.F.=1)  AT K=   3, I=   2, J=  30


     1 CALLS TO GCG PACKAGE FOR TRANSPORT TIME STEP   1 IN FLOW TIME STEP  89 STRESS PERIOD   2
    13 TOTAL ITERATIONS

 OUTPUT CONTROL FOR STRESS PERIOD    2   TIME STEP  89
    SAVE HEAD FOR ALL LAYERS
    SAVE BUDGET
>>>>>>> Stashed changes
 
 SOLVING FOR HEAD 
 FLOW MODEL IS TRANSIENT
 FLOW MODEL CONTAINS CONSTANT-HEAD CELLS


 MAXIMUM STEPSIZE DURING WHICH ANY PARTICLE CANNOT MOVE MORE THAN ONE CELL
<<<<<<< Updated upstream
 = 0.1632    (WHEN MIN. R.F.=1)  AT K=   3, I=   2, J=  29

 MAXIMUM STEPSIZE WHICH MEETS STABILITY CRITERION OF THE ADVECTION TERM
 (FOR PURE FINITE-DIFFERENCE OPTION, MIXELM=0) 
 = 0.1132    (WHEN MIN. R.F.=1)  AT K=   3, I=   2, J=  28
=======
 = 0.1869    (WHEN MIN. R.F.=1)  AT K=   3, I=   2, J=  31

 MAXIMUM STEPSIZE WHICH MEETS STABILITY CRITERION OF THE ADVECTION TERM
 (FOR PURE FINITE-DIFFERENCE OPTION, MIXELM=0) 
 = 0.1248    (WHEN MIN. R.F.=1)  AT K=   3, I=   2, J=  30
>>>>>>> Stashed changes


 TOTAL NUMBER OF POINT SOURCES/SINKS PRESENT IN THE FLOW MODEL =   240

 MAXIMUM STEPSIZE WHICH MEETS STABILITY CRITERION OF THE SINK & SOURCE TERM
 = 0.1000E+31(WHEN MIN. R.F.=1)  AT K=   0, I=   0, J=   0

 MAXIMUM STEPSIZE WHICH MEETS STABILITY CRITERION OF THE DISPERSION TERM
<<<<<<< Updated upstream
 = 0.6194E-02(WHEN MIN. R.F.=1)  AT K=   3, I=   2, J=  31
     1 CALLS TO GCG PACKAGE FOR TRANSPORT TIME STEP   4 IN FLOW TIME STEP  90 STRESS PERIOD   2
    11 TOTAL ITERATIONS
=======
 = 0.6695E-02(WHEN MIN. R.F.=1)  AT K=   3, I=   2, J=  30
     1 CALLS TO GCG PACKAGE FOR TRANSPORT TIME STEP   2 IN FLOW TIME STEP  89 STRESS PERIOD   2
    13 TOTAL ITERATIONS
>>>>>>> Stashed changes
 
 SOLVING FOR HEAD 
 FLOW MODEL IS TRANSIENT
 FLOW MODEL CONTAINS CONSTANT-HEAD CELLS


 MAXIMUM STEPSIZE DURING WHICH ANY PARTICLE CANNOT MOVE MORE THAN ONE CELL
<<<<<<< Updated upstream
 = 0.1632    (WHEN MIN. R.F.=1)  AT K=   3, I=   2, J=  29

 MAXIMUM STEPSIZE WHICH MEETS STABILITY CRITERION OF THE ADVECTION TERM
 (FOR PURE FINITE-DIFFERENCE OPTION, MIXELM=0) 
 = 0.1132    (WHEN MIN. R.F.=1)  AT K=   3, I=   2, J=  28
=======
 = 0.1869    (WHEN MIN. R.F.=1)  AT K=   3, I=   2, J=  31

 MAXIMUM STEPSIZE WHICH MEETS STABILITY CRITERION OF THE ADVECTION TERM
 (FOR PURE FINITE-DIFFERENCE OPTION, MIXELM=0) 
 = 0.1248    (WHEN MIN. R.F.=1)  AT K=   3, I=   2, J=  30
>>>>>>> Stashed changes


 TOTAL NUMBER OF POINT SOURCES/SINKS PRESENT IN THE FLOW MODEL =   240

 MAXIMUM STEPSIZE WHICH MEETS STABILITY CRITERION OF THE SINK & SOURCE TERM
 = 0.1000E+31(WHEN MIN. R.F.=1)  AT K=   0, I=   0, J=   0

 MAXIMUM STEPSIZE WHICH MEETS STABILITY CRITERION OF THE DISPERSION TERM
<<<<<<< Updated upstream
 = 0.6194E-02(WHEN MIN. R.F.=1)  AT K=   3, I=   2, J=  31
     1 CALLS TO GCG PACKAGE FOR TRANSPORT TIME STEP   5 IN FLOW TIME STEP  90 STRESS PERIOD   2
    11 TOTAL ITERATIONS
=======
 = 0.6695E-02(WHEN MIN. R.F.=1)  AT K=   3, I=   2, J=  30
     1 CALLS TO GCG PACKAGE FOR TRANSPORT TIME STEP   3 IN FLOW TIME STEP  89 STRESS PERIOD   2
    13 TOTAL ITERATIONS
>>>>>>> Stashed changes
 
 SOLVING FOR HEAD 
 FLOW MODEL IS TRANSIENT
 FLOW MODEL CONTAINS CONSTANT-HEAD CELLS


 MAXIMUM STEPSIZE DURING WHICH ANY PARTICLE CANNOT MOVE MORE THAN ONE CELL
<<<<<<< Updated upstream
 = 0.1632    (WHEN MIN. R.F.=1)  AT K=   3, I=   2, J=  29

 MAXIMUM STEPSIZE WHICH MEETS STABILITY CRITERION OF THE ADVECTION TERM
 (FOR PURE FINITE-DIFFERENCE OPTION, MIXELM=0) 
 = 0.1132    (WHEN MIN. R.F.=1)  AT K=   3, I=   2, J=  28
=======
 = 0.1869    (WHEN MIN. R.F.=1)  AT K=   3, I=   2, J=  31

 MAXIMUM STEPSIZE WHICH MEETS STABILITY CRITERION OF THE ADVECTION TERM
 (FOR PURE FINITE-DIFFERENCE OPTION, MIXELM=0) 
 = 0.1248    (WHEN MIN. R.F.=1)  AT K=   3, I=   2, J=  30
>>>>>>> Stashed changes


 TOTAL NUMBER OF POINT SOURCES/SINKS PRESENT IN THE FLOW MODEL =   240

 MAXIMUM STEPSIZE WHICH MEETS STABILITY CRITERION OF THE SINK & SOURCE TERM
 = 0.1000E+31(WHEN MIN. R.F.=1)  AT K=   0, I=   0, J=   0

 MAXIMUM STEPSIZE WHICH MEETS STABILITY CRITERION OF THE DISPERSION TERM
<<<<<<< Updated upstream
 = 0.6194E-02(WHEN MIN. R.F.=1)  AT K=   3, I=   2, J=  31
     1 CALLS TO GCG PACKAGE FOR TRANSPORT TIME STEP   6 IN FLOW TIME STEP  90 STRESS PERIOD   2
    11 TOTAL ITERATIONS
=======
 = 0.6695E-02(WHEN MIN. R.F.=1)  AT K=   3, I=   2, J=  30
     1 CALLS TO GCG PACKAGE FOR TRANSPORT TIME STEP   4 IN FLOW TIME STEP  89 STRESS PERIOD   2
    13 TOTAL ITERATIONS
>>>>>>> Stashed changes
 
 SOLVING FOR HEAD 
 FLOW MODEL IS TRANSIENT
 FLOW MODEL CONTAINS CONSTANT-HEAD CELLS


 MAXIMUM STEPSIZE DURING WHICH ANY PARTICLE CANNOT MOVE MORE THAN ONE CELL
<<<<<<< Updated upstream
 = 0.1632    (WHEN MIN. R.F.=1)  AT K=   3, I=   2, J=  29

 MAXIMUM STEPSIZE WHICH MEETS STABILITY CRITERION OF THE ADVECTION TERM
 (FOR PURE FINITE-DIFFERENCE OPTION, MIXELM=0) 
 = 0.1132    (WHEN MIN. R.F.=1)  AT K=   3, I=   2, J=  28
=======
 = 0.1869    (WHEN MIN. R.F.=1)  AT K=   3, I=   2, J=  31

 MAXIMUM STEPSIZE WHICH MEETS STABILITY CRITERION OF THE ADVECTION TERM
 (FOR PURE FINITE-DIFFERENCE OPTION, MIXELM=0) 
 = 0.1248    (WHEN MIN. R.F.=1)  AT K=   3, I=   2, J=  30
>>>>>>> Stashed changes


 TOTAL NUMBER OF POINT SOURCES/SINKS PRESENT IN THE FLOW MODEL =   240

 MAXIMUM STEPSIZE WHICH MEETS STABILITY CRITERION OF THE SINK & SOURCE TERM
 = 0.1000E+31(WHEN MIN. R.F.=1)  AT K=   0, I=   0, J=   0

 MAXIMUM STEPSIZE WHICH MEETS STABILITY CRITERION OF THE DISPERSION TERM
<<<<<<< Updated upstream
 = 0.6194E-02(WHEN MIN. R.F.=1)  AT K=   3, I=   2, J=  31
     1 CALLS TO GCG PACKAGE FOR TRANSPORT TIME STEP   7 IN FLOW TIME STEP  90 STRESS PERIOD   2
    11 TOTAL ITERATIONS
=======
 = 0.6695E-02(WHEN MIN. R.F.=1)  AT K=   3, I=   2, J=  30
     1 CALLS TO GCG PACKAGE FOR TRANSPORT TIME STEP   5 IN FLOW TIME STEP  89 STRESS PERIOD   2
    14 TOTAL ITERATIONS
>>>>>>> Stashed changes
 
 SOLVING FOR HEAD 
 FLOW MODEL IS TRANSIENT
 FLOW MODEL CONTAINS CONSTANT-HEAD CELLS


 MAXIMUM STEPSIZE DURING WHICH ANY PARTICLE CANNOT MOVE MORE THAN ONE CELL
<<<<<<< Updated upstream
 = 0.1632    (WHEN MIN. R.F.=1)  AT K=   3, I=   2, J=  29

 MAXIMUM STEPSIZE WHICH MEETS STABILITY CRITERION OF THE ADVECTION TERM
 (FOR PURE FINITE-DIFFERENCE OPTION, MIXELM=0) 
 = 0.1132    (WHEN MIN. R.F.=1)  AT K=   3, I=   2, J=  28
=======
 = 0.1869    (WHEN MIN. R.F.=1)  AT K=   3, I=   2, J=  31

 MAXIMUM STEPSIZE WHICH MEETS STABILITY CRITERION OF THE ADVECTION TERM
 (FOR PURE FINITE-DIFFERENCE OPTION, MIXELM=0) 
 = 0.1248    (WHEN MIN. R.F.=1)  AT K=   3, I=   2, J=  30
>>>>>>> Stashed changes


 TOTAL NUMBER OF POINT SOURCES/SINKS PRESENT IN THE FLOW MODEL =   240

 MAXIMUM STEPSIZE WHICH MEETS STABILITY CRITERION OF THE SINK & SOURCE TERM
 = 0.1000E+31(WHEN MIN. R.F.=1)  AT K=   0, I=   0, J=   0

 MAXIMUM STEPSIZE WHICH MEETS STABILITY CRITERION OF THE DISPERSION TERM
<<<<<<< Updated upstream
 = 0.6194E-02(WHEN MIN. R.F.=1)  AT K=   3, I=   2, J=  31
     1 CALLS TO GCG PACKAGE FOR TRANSPORT TIME STEP   8 IN FLOW TIME STEP  90 STRESS PERIOD   2
    11 TOTAL ITERATIONS
=======
 = 0.6695E-02(WHEN MIN. R.F.=1)  AT K=   3, I=   2, J=  30
     1 CALLS TO GCG PACKAGE FOR TRANSPORT TIME STEP   6 IN FLOW TIME STEP  89 STRESS PERIOD   2
    12 TOTAL ITERATIONS
>>>>>>> Stashed changes
 
 SOLVING FOR HEAD 
 FLOW MODEL IS TRANSIENT
 FLOW MODEL CONTAINS CONSTANT-HEAD CELLS


 MAXIMUM STEPSIZE DURING WHICH ANY PARTICLE CANNOT MOVE MORE THAN ONE CELL
<<<<<<< Updated upstream
 = 0.1632    (WHEN MIN. R.F.=1)  AT K=   3, I=   2, J=  29

 MAXIMUM STEPSIZE WHICH MEETS STABILITY CRITERION OF THE ADVECTION TERM
 (FOR PURE FINITE-DIFFERENCE OPTION, MIXELM=0) 
 = 0.1132    (WHEN MIN. R.F.=1)  AT K=   3, I=   2, J=  28
=======
 = 0.1869    (WHEN MIN. R.F.=1)  AT K=   3, I=   2, J=  31

 MAXIMUM STEPSIZE WHICH MEETS STABILITY CRITERION OF THE ADVECTION TERM
 (FOR PURE FINITE-DIFFERENCE OPTION, MIXELM=0) 
 = 0.1248    (WHEN MIN. R.F.=1)  AT K=   3, I=   2, J=  30
>>>>>>> Stashed changes


 TOTAL NUMBER OF POINT SOURCES/SINKS PRESENT IN THE FLOW MODEL =   240

 MAXIMUM STEPSIZE WHICH MEETS STABILITY CRITERION OF THE SINK & SOURCE TERM
 = 0.1000E+31(WHEN MIN. R.F.=1)  AT K=   0, I=   0, J=   0

 MAXIMUM STEPSIZE WHICH MEETS STABILITY CRITERION OF THE DISPERSION TERM
<<<<<<< Updated upstream
 = 0.6194E-02(WHEN MIN. R.F.=1)  AT K=   3, I=   2, J=  31
     1 CALLS TO GCG PACKAGE FOR TRANSPORT TIME STEP   9 IN FLOW TIME STEP  90 STRESS PERIOD   2
     4 TOTAL ITERATIONS
  MAXIMUM CONCENTRATION CHANGES FOR EACH ITERATION:
  MAX. CHANGE LAYER,ROW,COL MAX. CHANGE LAYER,ROW,COL MAX. CHANGE LAYER,ROW,COL MAX. CHANGE LAYER,ROW,COL MAX. CHANGE LAYER,ROW,COL
 ------------------------------------------------------------------------------------------------------------------------------------
   0.1356E-03 ( 13,  3, 55)  0.3549E-05 (  5,  2, 65)  0.6110E-06 (  6,  1, 56)  0.7334E-07 (  6,  1, 54)


                                          ================================================
                                                         FROM TIME =   91.000     TO    92.000    

=======
 = 0.6695E-02(WHEN MIN. R.F.=1)  AT K=   3, I=   2, J=  30
     1 CALLS TO GCG PACKAGE FOR TRANSPORT TIME STEP   7 IN FLOW TIME STEP  89 STRESS PERIOD   2
    13 TOTAL ITERATIONS
>>>>>>> Stashed changes
 
 SOLVING FOR HEAD 
 FLOW MODEL IS TRANSIENT
 FLOW MODEL CONTAINS CONSTANT-HEAD CELLS


 MAXIMUM STEPSIZE DURING WHICH ANY PARTICLE CANNOT MOVE MORE THAN ONE CELL
<<<<<<< Updated upstream
 = 0.1632    (WHEN MIN. R.F.=1)  AT K=   3, I=   2, J=  29

 MAXIMUM STEPSIZE WHICH MEETS STABILITY CRITERION OF THE ADVECTION TERM
 (FOR PURE FINITE-DIFFERENCE OPTION, MIXELM=0) 
 = 0.1132    (WHEN MIN. R.F.=1)  AT K=   3, I=   2, J=  28
=======
 = 0.1869    (WHEN MIN. R.F.=1)  AT K=   3, I=   2, J=  31

 MAXIMUM STEPSIZE WHICH MEETS STABILITY CRITERION OF THE ADVECTION TERM
 (FOR PURE FINITE-DIFFERENCE OPTION, MIXELM=0) 
 = 0.1248    (WHEN MIN. R.F.=1)  AT K=   3, I=   2, J=  30
>>>>>>> Stashed changes


 TOTAL NUMBER OF POINT SOURCES/SINKS PRESENT IN THE FLOW MODEL =   240

 MAXIMUM STEPSIZE WHICH MEETS STABILITY CRITERION OF THE SINK & SOURCE TERM
 = 0.1000E+31(WHEN MIN. R.F.=1)  AT K=   0, I=   0, J=   0

 MAXIMUM STEPSIZE WHICH MEETS STABILITY CRITERION OF THE DISPERSION TERM
<<<<<<< Updated upstream
 = 0.6194E-02(WHEN MIN. R.F.=1)  AT K=   3, I=   2, J=  31


     1 CALLS TO GCG PACKAGE FOR TRANSPORT TIME STEP   1 IN FLOW TIME STEP  91 STRESS PERIOD   2
    11 TOTAL ITERATIONS

 NO OUTPUT CONTROL FOR STRESS PERIOD    2   TIME STEP  91
 
 SOLVING FOR HEAD 
 FLOW MODEL IS TRANSIENT
 FLOW MODEL CONTAINS CONSTANT-HEAD CELLS


 MAXIMUM STEPSIZE DURING WHICH ANY PARTICLE CANNOT MOVE MORE THAN ONE CELL
 = 0.1632    (WHEN MIN. R.F.=1)  AT K=   3, I=   2, J=  29

 MAXIMUM STEPSIZE WHICH MEETS STABILITY CRITERION OF THE ADVECTION TERM
 (FOR PURE FINITE-DIFFERENCE OPTION, MIXELM=0) 
 = 0.1132    (WHEN MIN. R.F.=1)  AT K=   3, I=   2, J=  28
=======
 = 0.6695E-02(WHEN MIN. R.F.=1)  AT K=   3, I=   2, J=  30
     1 CALLS TO GCG PACKAGE FOR TRANSPORT TIME STEP   8 IN FLOW TIME STEP  89 STRESS PERIOD   2
     4 TOTAL ITERATIONS
  MAXIMUM CONCENTRATION CHANGES FOR EACH ITERATION:
  MAX. CHANGE LAYER,ROW,COL MAX. CHANGE LAYER,ROW,COL MAX. CHANGE LAYER,ROW,COL MAX. CHANGE LAYER,ROW,COL MAX. CHANGE LAYER,ROW,COL
 ------------------------------------------------------------------------------------------------------------------------------------
   0.8866E-04 ( 14,  2, 57)  0.2194E-05 (  5,  2, 63)  0.3723E-06 (  4,  2, 56)  0.8140E-07 (  3,  2, 44)
 UBDSV1 SAVING "         STORAGE" ON UNIT  53 AT TIME STEP 89, STRESS PERIOD   2
 UBDSV2 SAVING "   CONSTANT HEAD" ON UNIT  53 AT TIME STEP 89, STRESS PERIOD   2
 UBDSV1 SAVING "FLOW RIGHT FACE " ON UNIT  53 AT TIME STEP 89, STRESS PERIOD   2
 UBDSV1 SAVING "FLOW FRONT FACE " ON UNIT  53 AT TIME STEP 89, STRESS PERIOD   2
 UBDSV1 SAVING "FLOW LOWER FACE " ON UNIT  53 AT TIME STEP 89, STRESS PERIOD   2
 UBDSV1 SAVING "            DCDT" ON UNIT  53 AT TIME STEP 89, STRESS PERIOD   2
>>>>>>> Stashed changes

 HEAD WILL BE SAVED ON UNIT   51 AT END OF TIME STEP  89, STRESS PERIOD    2


                                          ================================================
                                                         FROM TIME =   90.000     TO    91.000    

<<<<<<< Updated upstream
 MAXIMUM STEPSIZE WHICH MEETS STABILITY CRITERION OF THE DISPERSION TERM
 = 0.6194E-02(WHEN MIN. R.F.=1)  AT K=   3, I=   2, J=  31
     1 CALLS TO GCG PACKAGE FOR TRANSPORT TIME STEP   2 IN FLOW TIME STEP  91 STRESS PERIOD   2
    11 TOTAL ITERATIONS
=======
>>>>>>> Stashed changes
 
 SOLVING FOR HEAD 
 FLOW MODEL IS TRANSIENT
 FLOW MODEL CONTAINS CONSTANT-HEAD CELLS


 MAXIMUM STEPSIZE DURING WHICH ANY PARTICLE CANNOT MOVE MORE THAN ONE CELL
<<<<<<< Updated upstream
 = 0.1632    (WHEN MIN. R.F.=1)  AT K=   3, I=   2, J=  29

 MAXIMUM STEPSIZE WHICH MEETS STABILITY CRITERION OF THE ADVECTION TERM
 (FOR PURE FINITE-DIFFERENCE OPTION, MIXELM=0) 
 = 0.1132    (WHEN MIN. R.F.=1)  AT K=   3, I=   2, J=  28
=======
 = 0.1869    (WHEN MIN. R.F.=1)  AT K=   3, I=   2, J=  31

 MAXIMUM STEPSIZE WHICH MEETS STABILITY CRITERION OF THE ADVECTION TERM
 (FOR PURE FINITE-DIFFERENCE OPTION, MIXELM=0) 
 = 0.1248    (WHEN MIN. R.F.=1)  AT K=   3, I=   2, J=  30
>>>>>>> Stashed changes


 TOTAL NUMBER OF POINT SOURCES/SINKS PRESENT IN THE FLOW MODEL =   240

 MAXIMUM STEPSIZE WHICH MEETS STABILITY CRITERION OF THE SINK & SOURCE TERM
 = 0.1000E+31(WHEN MIN. R.F.=1)  AT K=   0, I=   0, J=   0

 MAXIMUM STEPSIZE WHICH MEETS STABILITY CRITERION OF THE DISPERSION TERM
<<<<<<< Updated upstream
 = 0.6194E-02(WHEN MIN. R.F.=1)  AT K=   3, I=   2, J=  31
     1 CALLS TO GCG PACKAGE FOR TRANSPORT TIME STEP   3 IN FLOW TIME STEP  91 STRESS PERIOD   2
    11 TOTAL ITERATIONS
=======
 = 0.6695E-02(WHEN MIN. R.F.=1)  AT K=   3, I=   2, J=  30


     1 CALLS TO GCG PACKAGE FOR TRANSPORT TIME STEP   1 IN FLOW TIME STEP  90 STRESS PERIOD   2
    13 TOTAL ITERATIONS

 OUTPUT CONTROL FOR STRESS PERIOD    2   TIME STEP  90
    SAVE HEAD FOR ALL LAYERS
    SAVE BUDGET
>>>>>>> Stashed changes
 
 SOLVING FOR HEAD 
 FLOW MODEL IS TRANSIENT
 FLOW MODEL CONTAINS CONSTANT-HEAD CELLS


 MAXIMUM STEPSIZE DURING WHICH ANY PARTICLE CANNOT MOVE MORE THAN ONE CELL
<<<<<<< Updated upstream
 = 0.1632    (WHEN MIN. R.F.=1)  AT K=   3, I=   2, J=  29

 MAXIMUM STEPSIZE WHICH MEETS STABILITY CRITERION OF THE ADVECTION TERM
 (FOR PURE FINITE-DIFFERENCE OPTION, MIXELM=0) 
 = 0.1132    (WHEN MIN. R.F.=1)  AT K=   3, I=   2, J=  28
=======
 = 0.1869    (WHEN MIN. R.F.=1)  AT K=   3, I=   2, J=  31

 MAXIMUM STEPSIZE WHICH MEETS STABILITY CRITERION OF THE ADVECTION TERM
 (FOR PURE FINITE-DIFFERENCE OPTION, MIXELM=0) 
 = 0.1248    (WHEN MIN. R.F.=1)  AT K=   3, I=   2, J=  30
>>>>>>> Stashed changes


 TOTAL NUMBER OF POINT SOURCES/SINKS PRESENT IN THE FLOW MODEL =   240

 MAXIMUM STEPSIZE WHICH MEETS STABILITY CRITERION OF THE SINK & SOURCE TERM
 = 0.1000E+31(WHEN MIN. R.F.=1)  AT K=   0, I=   0, J=   0

 MAXIMUM STEPSIZE WHICH MEETS STABILITY CRITERION OF THE DISPERSION TERM
<<<<<<< Updated upstream
 = 0.6194E-02(WHEN MIN. R.F.=1)  AT K=   3, I=   2, J=  31
     1 CALLS TO GCG PACKAGE FOR TRANSPORT TIME STEP   4 IN FLOW TIME STEP  91 STRESS PERIOD   2
    12 TOTAL ITERATIONS
=======
 = 0.6695E-02(WHEN MIN. R.F.=1)  AT K=   3, I=   2, J=  30
     1 CALLS TO GCG PACKAGE FOR TRANSPORT TIME STEP   2 IN FLOW TIME STEP  90 STRESS PERIOD   2
    13 TOTAL ITERATIONS
>>>>>>> Stashed changes
 
 SOLVING FOR HEAD 
 FLOW MODEL IS TRANSIENT
 FLOW MODEL CONTAINS CONSTANT-HEAD CELLS


 MAXIMUM STEPSIZE DURING WHICH ANY PARTICLE CANNOT MOVE MORE THAN ONE CELL
<<<<<<< Updated upstream
 = 0.1632    (WHEN MIN. R.F.=1)  AT K=   3, I=   2, J=  29

 MAXIMUM STEPSIZE WHICH MEETS STABILITY CRITERION OF THE ADVECTION TERM
 (FOR PURE FINITE-DIFFERENCE OPTION, MIXELM=0) 
 = 0.1132    (WHEN MIN. R.F.=1)  AT K=   3, I=   2, J=  28
=======
 = 0.1869    (WHEN MIN. R.F.=1)  AT K=   3, I=   2, J=  31

 MAXIMUM STEPSIZE WHICH MEETS STABILITY CRITERION OF THE ADVECTION TERM
 (FOR PURE FINITE-DIFFERENCE OPTION, MIXELM=0) 
 = 0.1248    (WHEN MIN. R.F.=1)  AT K=   3, I=   2, J=  30
>>>>>>> Stashed changes


 TOTAL NUMBER OF POINT SOURCES/SINKS PRESENT IN THE FLOW MODEL =   240

 MAXIMUM STEPSIZE WHICH MEETS STABILITY CRITERION OF THE SINK & SOURCE TERM
 = 0.1000E+31(WHEN MIN. R.F.=1)  AT K=   0, I=   0, J=   0

 MAXIMUM STEPSIZE WHICH MEETS STABILITY CRITERION OF THE DISPERSION TERM
<<<<<<< Updated upstream
 = 0.6194E-02(WHEN MIN. R.F.=1)  AT K=   3, I=   2, J=  31
     1 CALLS TO GCG PACKAGE FOR TRANSPORT TIME STEP   5 IN FLOW TIME STEP  91 STRESS PERIOD   2
    11 TOTAL ITERATIONS
=======
 = 0.6695E-02(WHEN MIN. R.F.=1)  AT K=   3, I=   2, J=  30
     1 CALLS TO GCG PACKAGE FOR TRANSPORT TIME STEP   3 IN FLOW TIME STEP  90 STRESS PERIOD   2
    13 TOTAL ITERATIONS
>>>>>>> Stashed changes
 
 SOLVING FOR HEAD 
 FLOW MODEL IS TRANSIENT
 FLOW MODEL CONTAINS CONSTANT-HEAD CELLS


 MAXIMUM STEPSIZE DURING WHICH ANY PARTICLE CANNOT MOVE MORE THAN ONE CELL
<<<<<<< Updated upstream
 = 0.1632    (WHEN MIN. R.F.=1)  AT K=   3, I=   2, J=  29

 MAXIMUM STEPSIZE WHICH MEETS STABILITY CRITERION OF THE ADVECTION TERM
 (FOR PURE FINITE-DIFFERENCE OPTION, MIXELM=0) 
 = 0.1132    (WHEN MIN. R.F.=1)  AT K=   3, I=   2, J=  28
=======
 = 0.1869    (WHEN MIN. R.F.=1)  AT K=   3, I=   2, J=  31

 MAXIMUM STEPSIZE WHICH MEETS STABILITY CRITERION OF THE ADVECTION TERM
 (FOR PURE FINITE-DIFFERENCE OPTION, MIXELM=0) 
 = 0.1248    (WHEN MIN. R.F.=1)  AT K=   3, I=   2, J=  30
>>>>>>> Stashed changes


 TOTAL NUMBER OF POINT SOURCES/SINKS PRESENT IN THE FLOW MODEL =   240

 MAXIMUM STEPSIZE WHICH MEETS STABILITY CRITERION OF THE SINK & SOURCE TERM
 = 0.1000E+31(WHEN MIN. R.F.=1)  AT K=   0, I=   0, J=   0

 MAXIMUM STEPSIZE WHICH MEETS STABILITY CRITERION OF THE DISPERSION TERM
<<<<<<< Updated upstream
 = 0.6194E-02(WHEN MIN. R.F.=1)  AT K=   3, I=   2, J=  31
     1 CALLS TO GCG PACKAGE FOR TRANSPORT TIME STEP   6 IN FLOW TIME STEP  91 STRESS PERIOD   2
    10 TOTAL ITERATIONS
=======
 = 0.6695E-02(WHEN MIN. R.F.=1)  AT K=   3, I=   2, J=  30
     1 CALLS TO GCG PACKAGE FOR TRANSPORT TIME STEP   4 IN FLOW TIME STEP  90 STRESS PERIOD   2
    13 TOTAL ITERATIONS
>>>>>>> Stashed changes
 
 SOLVING FOR HEAD 
 FLOW MODEL IS TRANSIENT
 FLOW MODEL CONTAINS CONSTANT-HEAD CELLS


 MAXIMUM STEPSIZE DURING WHICH ANY PARTICLE CANNOT MOVE MORE THAN ONE CELL
<<<<<<< Updated upstream
 = 0.1632    (WHEN MIN. R.F.=1)  AT K=   3, I=   2, J=  29

 MAXIMUM STEPSIZE WHICH MEETS STABILITY CRITERION OF THE ADVECTION TERM
 (FOR PURE FINITE-DIFFERENCE OPTION, MIXELM=0) 
 = 0.1132    (WHEN MIN. R.F.=1)  AT K=   3, I=   2, J=  28
=======
 = 0.1869    (WHEN MIN. R.F.=1)  AT K=   3, I=   2, J=  31

 MAXIMUM STEPSIZE WHICH MEETS STABILITY CRITERION OF THE ADVECTION TERM
 (FOR PURE FINITE-DIFFERENCE OPTION, MIXELM=0) 
 = 0.1248    (WHEN MIN. R.F.=1)  AT K=   3, I=   2, J=  30
>>>>>>> Stashed changes


 TOTAL NUMBER OF POINT SOURCES/SINKS PRESENT IN THE FLOW MODEL =   240

 MAXIMUM STEPSIZE WHICH MEETS STABILITY CRITERION OF THE SINK & SOURCE TERM
 = 0.1000E+31(WHEN MIN. R.F.=1)  AT K=   0, I=   0, J=   0

 MAXIMUM STEPSIZE WHICH MEETS STABILITY CRITERION OF THE DISPERSION TERM
<<<<<<< Updated upstream
 = 0.6194E-02(WHEN MIN. R.F.=1)  AT K=   3, I=   2, J=  31
     1 CALLS TO GCG PACKAGE FOR TRANSPORT TIME STEP   7 IN FLOW TIME STEP  91 STRESS PERIOD   2
    11 TOTAL ITERATIONS
=======
 = 0.6695E-02(WHEN MIN. R.F.=1)  AT K=   3, I=   2, J=  30
     1 CALLS TO GCG PACKAGE FOR TRANSPORT TIME STEP   5 IN FLOW TIME STEP  90 STRESS PERIOD   2
    13 TOTAL ITERATIONS
>>>>>>> Stashed changes
 
 SOLVING FOR HEAD 
 FLOW MODEL IS TRANSIENT
 FLOW MODEL CONTAINS CONSTANT-HEAD CELLS


 MAXIMUM STEPSIZE DURING WHICH ANY PARTICLE CANNOT MOVE MORE THAN ONE CELL
<<<<<<< Updated upstream
 = 0.1632    (WHEN MIN. R.F.=1)  AT K=   3, I=   2, J=  29

 MAXIMUM STEPSIZE WHICH MEETS STABILITY CRITERION OF THE ADVECTION TERM
 (FOR PURE FINITE-DIFFERENCE OPTION, MIXELM=0) 
 = 0.1132    (WHEN MIN. R.F.=1)  AT K=   3, I=   2, J=  28
=======
 = 0.1869    (WHEN MIN. R.F.=1)  AT K=   3, I=   2, J=  31

 MAXIMUM STEPSIZE WHICH MEETS STABILITY CRITERION OF THE ADVECTION TERM
 (FOR PURE FINITE-DIFFERENCE OPTION, MIXELM=0) 
 = 0.1248    (WHEN MIN. R.F.=1)  AT K=   3, I=   2, J=  30
>>>>>>> Stashed changes


 TOTAL NUMBER OF POINT SOURCES/SINKS PRESENT IN THE FLOW MODEL =   240

 MAXIMUM STEPSIZE WHICH MEETS STABILITY CRITERION OF THE SINK & SOURCE TERM
 = 0.1000E+31(WHEN MIN. R.F.=1)  AT K=   0, I=   0, J=   0

 MAXIMUM STEPSIZE WHICH MEETS STABILITY CRITERION OF THE DISPERSION TERM
<<<<<<< Updated upstream
 = 0.6194E-02(WHEN MIN. R.F.=1)  AT K=   3, I=   2, J=  31
     1 CALLS TO GCG PACKAGE FOR TRANSPORT TIME STEP   8 IN FLOW TIME STEP  91 STRESS PERIOD   2
    11 TOTAL ITERATIONS
=======
 = 0.6695E-02(WHEN MIN. R.F.=1)  AT K=   3, I=   2, J=  30
     1 CALLS TO GCG PACKAGE FOR TRANSPORT TIME STEP   6 IN FLOW TIME STEP  90 STRESS PERIOD   2
    13 TOTAL ITERATIONS
>>>>>>> Stashed changes
 
 SOLVING FOR HEAD 
 FLOW MODEL IS TRANSIENT
 FLOW MODEL CONTAINS CONSTANT-HEAD CELLS


 MAXIMUM STEPSIZE DURING WHICH ANY PARTICLE CANNOT MOVE MORE THAN ONE CELL
<<<<<<< Updated upstream
 = 0.1632    (WHEN MIN. R.F.=1)  AT K=   3, I=   2, J=  29

 MAXIMUM STEPSIZE WHICH MEETS STABILITY CRITERION OF THE ADVECTION TERM
 (FOR PURE FINITE-DIFFERENCE OPTION, MIXELM=0) 
 = 0.1132    (WHEN MIN. R.F.=1)  AT K=   3, I=   2, J=  28
=======
 = 0.1869    (WHEN MIN. R.F.=1)  AT K=   3, I=   2, J=  31

 MAXIMUM STEPSIZE WHICH MEETS STABILITY CRITERION OF THE ADVECTION TERM
 (FOR PURE FINITE-DIFFERENCE OPTION, MIXELM=0) 
 = 0.1248    (WHEN MIN. R.F.=1)  AT K=   3, I=   2, J=  30
>>>>>>> Stashed changes


 TOTAL NUMBER OF POINT SOURCES/SINKS PRESENT IN THE FLOW MODEL =   240

 MAXIMUM STEPSIZE WHICH MEETS STABILITY CRITERION OF THE SINK & SOURCE TERM
 = 0.1000E+31(WHEN MIN. R.F.=1)  AT K=   0, I=   0, J=   0

 MAXIMUM STEPSIZE WHICH MEETS STABILITY CRITERION OF THE DISPERSION TERM
<<<<<<< Updated upstream
 = 0.6194E-02(WHEN MIN. R.F.=1)  AT K=   3, I=   2, J=  31
     1 CALLS TO GCG PACKAGE FOR TRANSPORT TIME STEP   9 IN FLOW TIME STEP  91 STRESS PERIOD   2
     4 TOTAL ITERATIONS
  MAXIMUM CONCENTRATION CHANGES FOR EACH ITERATION:
  MAX. CHANGE LAYER,ROW,COL MAX. CHANGE LAYER,ROW,COL MAX. CHANGE LAYER,ROW,COL MAX. CHANGE LAYER,ROW,COL MAX. CHANGE LAYER,ROW,COL
 ------------------------------------------------------------------------------------------------------------------------------------
   0.1365E-03 ( 13,  3, 55)  0.3473E-05 (  5,  2, 65)  0.5948E-06 (  6,  1, 56)  0.7164E-07 (  6,  1, 54)


                                          ================================================
                                                         FROM TIME =   92.000     TO    93.000    

=======
 = 0.6695E-02(WHEN MIN. R.F.=1)  AT K=   3, I=   2, J=  30
     1 CALLS TO GCG PACKAGE FOR TRANSPORT TIME STEP   7 IN FLOW TIME STEP  90 STRESS PERIOD   2
    13 TOTAL ITERATIONS
>>>>>>> Stashed changes
 
 SOLVING FOR HEAD 
 FLOW MODEL IS TRANSIENT
 FLOW MODEL CONTAINS CONSTANT-HEAD CELLS


 MAXIMUM STEPSIZE DURING WHICH ANY PARTICLE CANNOT MOVE MORE THAN ONE CELL
<<<<<<< Updated upstream
 = 0.1632    (WHEN MIN. R.F.=1)  AT K=   3, I=   2, J=  29

 MAXIMUM STEPSIZE WHICH MEETS STABILITY CRITERION OF THE ADVECTION TERM
 (FOR PURE FINITE-DIFFERENCE OPTION, MIXELM=0) 
 = 0.1132    (WHEN MIN. R.F.=1)  AT K=   3, I=   2, J=  28
=======
 = 0.1869    (WHEN MIN. R.F.=1)  AT K=   3, I=   2, J=  31

 MAXIMUM STEPSIZE WHICH MEETS STABILITY CRITERION OF THE ADVECTION TERM
 (FOR PURE FINITE-DIFFERENCE OPTION, MIXELM=0) 
 = 0.1248    (WHEN MIN. R.F.=1)  AT K=   3, I=   2, J=  30
>>>>>>> Stashed changes


 TOTAL NUMBER OF POINT SOURCES/SINKS PRESENT IN THE FLOW MODEL =   240

 MAXIMUM STEPSIZE WHICH MEETS STABILITY CRITERION OF THE SINK & SOURCE TERM
 = 0.1000E+31(WHEN MIN. R.F.=1)  AT K=   0, I=   0, J=   0

 MAXIMUM STEPSIZE WHICH MEETS STABILITY CRITERION OF THE DISPERSION TERM
<<<<<<< Updated upstream
 = 0.6194E-02(WHEN MIN. R.F.=1)  AT K=   3, I=   2, J=  31


     1 CALLS TO GCG PACKAGE FOR TRANSPORT TIME STEP   1 IN FLOW TIME STEP  92 STRESS PERIOD   2
    11 TOTAL ITERATIONS

 NO OUTPUT CONTROL FOR STRESS PERIOD    2   TIME STEP  92
=======
 = 0.6695E-02(WHEN MIN. R.F.=1)  AT K=   3, I=   2, J=  30
     1 CALLS TO GCG PACKAGE FOR TRANSPORT TIME STEP   8 IN FLOW TIME STEP  90 STRESS PERIOD   2
     4 TOTAL ITERATIONS
  MAXIMUM CONCENTRATION CHANGES FOR EACH ITERATION:
  MAX. CHANGE LAYER,ROW,COL MAX. CHANGE LAYER,ROW,COL MAX. CHANGE LAYER,ROW,COL MAX. CHANGE LAYER,ROW,COL MAX. CHANGE LAYER,ROW,COL
 ------------------------------------------------------------------------------------------------------------------------------------
   0.8767E-04 ( 14,  2, 57)  0.2144E-05 (  5,  2, 63)  0.3622E-06 (  4,  2, 56)  0.7839E-07 (  3,  2, 44)
 UBDSV1 SAVING "         STORAGE" ON UNIT  53 AT TIME STEP 90, STRESS PERIOD   2
 UBDSV2 SAVING "   CONSTANT HEAD" ON UNIT  53 AT TIME STEP 90, STRESS PERIOD   2
 UBDSV1 SAVING "FLOW RIGHT FACE " ON UNIT  53 AT TIME STEP 90, STRESS PERIOD   2
 UBDSV1 SAVING "FLOW FRONT FACE " ON UNIT  53 AT TIME STEP 90, STRESS PERIOD   2
 UBDSV1 SAVING "FLOW LOWER FACE " ON UNIT  53 AT TIME STEP 90, STRESS PERIOD   2
 UBDSV1 SAVING "            DCDT" ON UNIT  53 AT TIME STEP 90, STRESS PERIOD   2

 HEAD WILL BE SAVED ON UNIT   51 AT END OF TIME STEP  90, STRESS PERIOD    2


                                          ================================================
                                                         FROM TIME =   91.000     TO    92.000    

>>>>>>> Stashed changes
 
 SOLVING FOR HEAD 
 FLOW MODEL IS TRANSIENT
 FLOW MODEL CONTAINS CONSTANT-HEAD CELLS


 MAXIMUM STEPSIZE DURING WHICH ANY PARTICLE CANNOT MOVE MORE THAN ONE CELL
<<<<<<< Updated upstream
 = 0.1632    (WHEN MIN. R.F.=1)  AT K=   3, I=   2, J=  29

 MAXIMUM STEPSIZE WHICH MEETS STABILITY CRITERION OF THE ADVECTION TERM
 (FOR PURE FINITE-DIFFERENCE OPTION, MIXELM=0) 
 = 0.1132    (WHEN MIN. R.F.=1)  AT K=   3, I=   2, J=  28
=======
 = 0.1869    (WHEN MIN. R.F.=1)  AT K=   3, I=   2, J=  31

 MAXIMUM STEPSIZE WHICH MEETS STABILITY CRITERION OF THE ADVECTION TERM
 (FOR PURE FINITE-DIFFERENCE OPTION, MIXELM=0) 
 = 0.1248    (WHEN MIN. R.F.=1)  AT K=   3, I=   2, J=  30
>>>>>>> Stashed changes


 TOTAL NUMBER OF POINT SOURCES/SINKS PRESENT IN THE FLOW MODEL =   240

 MAXIMUM STEPSIZE WHICH MEETS STABILITY CRITERION OF THE SINK & SOURCE TERM
 = 0.1000E+31(WHEN MIN. R.F.=1)  AT K=   0, I=   0, J=   0

 MAXIMUM STEPSIZE WHICH MEETS STABILITY CRITERION OF THE DISPERSION TERM
<<<<<<< Updated upstream
 = 0.6194E-02(WHEN MIN. R.F.=1)  AT K=   3, I=   2, J=  31
     1 CALLS TO GCG PACKAGE FOR TRANSPORT TIME STEP   2 IN FLOW TIME STEP  92 STRESS PERIOD   2
    11 TOTAL ITERATIONS
=======
 = 0.6695E-02(WHEN MIN. R.F.=1)  AT K=   3, I=   2, J=  30


     1 CALLS TO GCG PACKAGE FOR TRANSPORT TIME STEP   1 IN FLOW TIME STEP  91 STRESS PERIOD   2
    13 TOTAL ITERATIONS

 OUTPUT CONTROL FOR STRESS PERIOD    2   TIME STEP  91
    SAVE HEAD FOR ALL LAYERS
    SAVE BUDGET
>>>>>>> Stashed changes
 
 SOLVING FOR HEAD 
 FLOW MODEL IS TRANSIENT
 FLOW MODEL CONTAINS CONSTANT-HEAD CELLS


 MAXIMUM STEPSIZE DURING WHICH ANY PARTICLE CANNOT MOVE MORE THAN ONE CELL
<<<<<<< Updated upstream
 = 0.1632    (WHEN MIN. R.F.=1)  AT K=   3, I=   2, J=  29

 MAXIMUM STEPSIZE WHICH MEETS STABILITY CRITERION OF THE ADVECTION TERM
 (FOR PURE FINITE-DIFFERENCE OPTION, MIXELM=0) 
 = 0.1132    (WHEN MIN. R.F.=1)  AT K=   3, I=   2, J=  28
=======
 = 0.1869    (WHEN MIN. R.F.=1)  AT K=   3, I=   2, J=  31

 MAXIMUM STEPSIZE WHICH MEETS STABILITY CRITERION OF THE ADVECTION TERM
 (FOR PURE FINITE-DIFFERENCE OPTION, MIXELM=0) 
 = 0.1248    (WHEN MIN. R.F.=1)  AT K=   3, I=   2, J=  30
>>>>>>> Stashed changes


 TOTAL NUMBER OF POINT SOURCES/SINKS PRESENT IN THE FLOW MODEL =   240

 MAXIMUM STEPSIZE WHICH MEETS STABILITY CRITERION OF THE SINK & SOURCE TERM
 = 0.1000E+31(WHEN MIN. R.F.=1)  AT K=   0, I=   0, J=   0

 MAXIMUM STEPSIZE WHICH MEETS STABILITY CRITERION OF THE DISPERSION TERM
<<<<<<< Updated upstream
 = 0.6194E-02(WHEN MIN. R.F.=1)  AT K=   3, I=   2, J=  31
     1 CALLS TO GCG PACKAGE FOR TRANSPORT TIME STEP   3 IN FLOW TIME STEP  92 STRESS PERIOD   2
    11 TOTAL ITERATIONS
=======
 = 0.6695E-02(WHEN MIN. R.F.=1)  AT K=   3, I=   2, J=  30
     1 CALLS TO GCG PACKAGE FOR TRANSPORT TIME STEP   2 IN FLOW TIME STEP  91 STRESS PERIOD   2
    13 TOTAL ITERATIONS
>>>>>>> Stashed changes
 
 SOLVING FOR HEAD 
 FLOW MODEL IS TRANSIENT
 FLOW MODEL CONTAINS CONSTANT-HEAD CELLS


 MAXIMUM STEPSIZE DURING WHICH ANY PARTICLE CANNOT MOVE MORE THAN ONE CELL
<<<<<<< Updated upstream
 = 0.1632    (WHEN MIN. R.F.=1)  AT K=   3, I=   2, J=  29

 MAXIMUM STEPSIZE WHICH MEETS STABILITY CRITERION OF THE ADVECTION TERM
 (FOR PURE FINITE-DIFFERENCE OPTION, MIXELM=0) 
 = 0.1132    (WHEN MIN. R.F.=1)  AT K=   3, I=   2, J=  28
=======
 = 0.1869    (WHEN MIN. R.F.=1)  AT K=   3, I=   2, J=  31

 MAXIMUM STEPSIZE WHICH MEETS STABILITY CRITERION OF THE ADVECTION TERM
 (FOR PURE FINITE-DIFFERENCE OPTION, MIXELM=0) 
 = 0.1248    (WHEN MIN. R.F.=1)  AT K=   3, I=   2, J=  30
>>>>>>> Stashed changes


 TOTAL NUMBER OF POINT SOURCES/SINKS PRESENT IN THE FLOW MODEL =   240

 MAXIMUM STEPSIZE WHICH MEETS STABILITY CRITERION OF THE SINK & SOURCE TERM
 = 0.1000E+31(WHEN MIN. R.F.=1)  AT K=   0, I=   0, J=   0

 MAXIMUM STEPSIZE WHICH MEETS STABILITY CRITERION OF THE DISPERSION TERM
<<<<<<< Updated upstream
 = 0.6194E-02(WHEN MIN. R.F.=1)  AT K=   3, I=   2, J=  31
     1 CALLS TO GCG PACKAGE FOR TRANSPORT TIME STEP   4 IN FLOW TIME STEP  92 STRESS PERIOD   2
    12 TOTAL ITERATIONS
=======
 = 0.6695E-02(WHEN MIN. R.F.=1)  AT K=   3, I=   2, J=  30
     1 CALLS TO GCG PACKAGE FOR TRANSPORT TIME STEP   3 IN FLOW TIME STEP  91 STRESS PERIOD   2
    13 TOTAL ITERATIONS
>>>>>>> Stashed changes
 
 SOLVING FOR HEAD 
 FLOW MODEL IS TRANSIENT
 FLOW MODEL CONTAINS CONSTANT-HEAD CELLS


 MAXIMUM STEPSIZE DURING WHICH ANY PARTICLE CANNOT MOVE MORE THAN ONE CELL
<<<<<<< Updated upstream
 = 0.1632    (WHEN MIN. R.F.=1)  AT K=   3, I=   2, J=  29

 MAXIMUM STEPSIZE WHICH MEETS STABILITY CRITERION OF THE ADVECTION TERM
 (FOR PURE FINITE-DIFFERENCE OPTION, MIXELM=0) 
 = 0.1132    (WHEN MIN. R.F.=1)  AT K=   3, I=   2, J=  28
=======
 = 0.1869    (WHEN MIN. R.F.=1)  AT K=   3, I=   2, J=  31

 MAXIMUM STEPSIZE WHICH MEETS STABILITY CRITERION OF THE ADVECTION TERM
 (FOR PURE FINITE-DIFFERENCE OPTION, MIXELM=0) 
 = 0.1248    (WHEN MIN. R.F.=1)  AT K=   3, I=   2, J=  30
>>>>>>> Stashed changes


 TOTAL NUMBER OF POINT SOURCES/SINKS PRESENT IN THE FLOW MODEL =   240

 MAXIMUM STEPSIZE WHICH MEETS STABILITY CRITERION OF THE SINK & SOURCE TERM
 = 0.1000E+31(WHEN MIN. R.F.=1)  AT K=   0, I=   0, J=   0

 MAXIMUM STEPSIZE WHICH MEETS STABILITY CRITERION OF THE DISPERSION TERM
<<<<<<< Updated upstream
 = 0.6194E-02(WHEN MIN. R.F.=1)  AT K=   3, I=   2, J=  31
     1 CALLS TO GCG PACKAGE FOR TRANSPORT TIME STEP   5 IN FLOW TIME STEP  92 STRESS PERIOD   2
    10 TOTAL ITERATIONS
=======
 = 0.6695E-02(WHEN MIN. R.F.=1)  AT K=   3, I=   2, J=  30
     1 CALLS TO GCG PACKAGE FOR TRANSPORT TIME STEP   4 IN FLOW TIME STEP  91 STRESS PERIOD   2
    13 TOTAL ITERATIONS
>>>>>>> Stashed changes
 
 SOLVING FOR HEAD 
 FLOW MODEL IS TRANSIENT
 FLOW MODEL CONTAINS CONSTANT-HEAD CELLS


 MAXIMUM STEPSIZE DURING WHICH ANY PARTICLE CANNOT MOVE MORE THAN ONE CELL
<<<<<<< Updated upstream
 = 0.1632    (WHEN MIN. R.F.=1)  AT K=   3, I=   2, J=  29

 MAXIMUM STEPSIZE WHICH MEETS STABILITY CRITERION OF THE ADVECTION TERM
 (FOR PURE FINITE-DIFFERENCE OPTION, MIXELM=0) 
 = 0.1132    (WHEN MIN. R.F.=1)  AT K=   3, I=   2, J=  28
=======
 = 0.1869    (WHEN MIN. R.F.=1)  AT K=   3, I=   2, J=  31

 MAXIMUM STEPSIZE WHICH MEETS STABILITY CRITERION OF THE ADVECTION TERM
 (FOR PURE FINITE-DIFFERENCE OPTION, MIXELM=0) 
 = 0.1248    (WHEN MIN. R.F.=1)  AT K=   3, I=   2, J=  30
>>>>>>> Stashed changes


 TOTAL NUMBER OF POINT SOURCES/SINKS PRESENT IN THE FLOW MODEL =   240

 MAXIMUM STEPSIZE WHICH MEETS STABILITY CRITERION OF THE SINK & SOURCE TERM
 = 0.1000E+31(WHEN MIN. R.F.=1)  AT K=   0, I=   0, J=   0

 MAXIMUM STEPSIZE WHICH MEETS STABILITY CRITERION OF THE DISPERSION TERM
<<<<<<< Updated upstream
 = 0.6194E-02(WHEN MIN. R.F.=1)  AT K=   3, I=   2, J=  31
     1 CALLS TO GCG PACKAGE FOR TRANSPORT TIME STEP   6 IN FLOW TIME STEP  92 STRESS PERIOD   2
    11 TOTAL ITERATIONS
=======
 = 0.6695E-02(WHEN MIN. R.F.=1)  AT K=   3, I=   2, J=  30
     1 CALLS TO GCG PACKAGE FOR TRANSPORT TIME STEP   5 IN FLOW TIME STEP  91 STRESS PERIOD   2
    13 TOTAL ITERATIONS
>>>>>>> Stashed changes
 
 SOLVING FOR HEAD 
 FLOW MODEL IS TRANSIENT
 FLOW MODEL CONTAINS CONSTANT-HEAD CELLS


 MAXIMUM STEPSIZE DURING WHICH ANY PARTICLE CANNOT MOVE MORE THAN ONE CELL
<<<<<<< Updated upstream
 = 0.1632    (WHEN MIN. R.F.=1)  AT K=   3, I=   2, J=  29

 MAXIMUM STEPSIZE WHICH MEETS STABILITY CRITERION OF THE ADVECTION TERM
 (FOR PURE FINITE-DIFFERENCE OPTION, MIXELM=0) 
 = 0.1132    (WHEN MIN. R.F.=1)  AT K=   3, I=   2, J=  28
=======
 = 0.1869    (WHEN MIN. R.F.=1)  AT K=   3, I=   2, J=  31

 MAXIMUM STEPSIZE WHICH MEETS STABILITY CRITERION OF THE ADVECTION TERM
 (FOR PURE FINITE-DIFFERENCE OPTION, MIXELM=0) 
 = 0.1248    (WHEN MIN. R.F.=1)  AT K=   3, I=   2, J=  30
>>>>>>> Stashed changes


 TOTAL NUMBER OF POINT SOURCES/SINKS PRESENT IN THE FLOW MODEL =   240

 MAXIMUM STEPSIZE WHICH MEETS STABILITY CRITERION OF THE SINK & SOURCE TERM
 = 0.1000E+31(WHEN MIN. R.F.=1)  AT K=   0, I=   0, J=   0

 MAXIMUM STEPSIZE WHICH MEETS STABILITY CRITERION OF THE DISPERSION TERM
<<<<<<< Updated upstream
 = 0.6194E-02(WHEN MIN. R.F.=1)  AT K=   3, I=   2, J=  31
     1 CALLS TO GCG PACKAGE FOR TRANSPORT TIME STEP   7 IN FLOW TIME STEP  92 STRESS PERIOD   2
    11 TOTAL ITERATIONS
=======
 = 0.6695E-02(WHEN MIN. R.F.=1)  AT K=   3, I=   2, J=  30
     1 CALLS TO GCG PACKAGE FOR TRANSPORT TIME STEP   6 IN FLOW TIME STEP  91 STRESS PERIOD   2
    13 TOTAL ITERATIONS
>>>>>>> Stashed changes
 
 SOLVING FOR HEAD 
 FLOW MODEL IS TRANSIENT
 FLOW MODEL CONTAINS CONSTANT-HEAD CELLS


 MAXIMUM STEPSIZE DURING WHICH ANY PARTICLE CANNOT MOVE MORE THAN ONE CELL
<<<<<<< Updated upstream
 = 0.1632    (WHEN MIN. R.F.=1)  AT K=   3, I=   2, J=  29

 MAXIMUM STEPSIZE WHICH MEETS STABILITY CRITERION OF THE ADVECTION TERM
 (FOR PURE FINITE-DIFFERENCE OPTION, MIXELM=0) 
 = 0.1132    (WHEN MIN. R.F.=1)  AT K=   3, I=   2, J=  28
=======
 = 0.1869    (WHEN MIN. R.F.=1)  AT K=   3, I=   2, J=  31

 MAXIMUM STEPSIZE WHICH MEETS STABILITY CRITERION OF THE ADVECTION TERM
 (FOR PURE FINITE-DIFFERENCE OPTION, MIXELM=0) 
 = 0.1248    (WHEN MIN. R.F.=1)  AT K=   3, I=   2, J=  30
>>>>>>> Stashed changes


 TOTAL NUMBER OF POINT SOURCES/SINKS PRESENT IN THE FLOW MODEL =   240

 MAXIMUM STEPSIZE WHICH MEETS STABILITY CRITERION OF THE SINK & SOURCE TERM
 = 0.1000E+31(WHEN MIN. R.F.=1)  AT K=   0, I=   0, J=   0

 MAXIMUM STEPSIZE WHICH MEETS STABILITY CRITERION OF THE DISPERSION TERM
<<<<<<< Updated upstream
 = 0.6194E-02(WHEN MIN. R.F.=1)  AT K=   3, I=   2, J=  31
     1 CALLS TO GCG PACKAGE FOR TRANSPORT TIME STEP   8 IN FLOW TIME STEP  92 STRESS PERIOD   2
    11 TOTAL ITERATIONS
=======
 = 0.6695E-02(WHEN MIN. R.F.=1)  AT K=   3, I=   2, J=  30
     1 CALLS TO GCG PACKAGE FOR TRANSPORT TIME STEP   7 IN FLOW TIME STEP  91 STRESS PERIOD   2
    13 TOTAL ITERATIONS
>>>>>>> Stashed changes
 
 SOLVING FOR HEAD 
 FLOW MODEL IS TRANSIENT
 FLOW MODEL CONTAINS CONSTANT-HEAD CELLS


 MAXIMUM STEPSIZE DURING WHICH ANY PARTICLE CANNOT MOVE MORE THAN ONE CELL
<<<<<<< Updated upstream
 = 0.1632    (WHEN MIN. R.F.=1)  AT K=   3, I=   2, J=  29

 MAXIMUM STEPSIZE WHICH MEETS STABILITY CRITERION OF THE ADVECTION TERM
 (FOR PURE FINITE-DIFFERENCE OPTION, MIXELM=0) 
 = 0.1132    (WHEN MIN. R.F.=1)  AT K=   3, I=   2, J=  28
=======
 = 0.1869    (WHEN MIN. R.F.=1)  AT K=   3, I=   2, J=  31

 MAXIMUM STEPSIZE WHICH MEETS STABILITY CRITERION OF THE ADVECTION TERM
 (FOR PURE FINITE-DIFFERENCE OPTION, MIXELM=0) 
 = 0.1248    (WHEN MIN. R.F.=1)  AT K=   3, I=   2, J=  30
>>>>>>> Stashed changes


 TOTAL NUMBER OF POINT SOURCES/SINKS PRESENT IN THE FLOW MODEL =   240

 MAXIMUM STEPSIZE WHICH MEETS STABILITY CRITERION OF THE SINK & SOURCE TERM
 = 0.1000E+31(WHEN MIN. R.F.=1)  AT K=   0, I=   0, J=   0

 MAXIMUM STEPSIZE WHICH MEETS STABILITY CRITERION OF THE DISPERSION TERM
<<<<<<< Updated upstream
 = 0.6194E-02(WHEN MIN. R.F.=1)  AT K=   3, I=   2, J=  31
     1 CALLS TO GCG PACKAGE FOR TRANSPORT TIME STEP   9 IN FLOW TIME STEP  92 STRESS PERIOD   2
=======
 = 0.6695E-02(WHEN MIN. R.F.=1)  AT K=   3, I=   2, J=  30
     1 CALLS TO GCG PACKAGE FOR TRANSPORT TIME STEP   8 IN FLOW TIME STEP  91 STRESS PERIOD   2
>>>>>>> Stashed changes
     4 TOTAL ITERATIONS
  MAXIMUM CONCENTRATION CHANGES FOR EACH ITERATION:
  MAX. CHANGE LAYER,ROW,COL MAX. CHANGE LAYER,ROW,COL MAX. CHANGE LAYER,ROW,COL MAX. CHANGE LAYER,ROW,COL MAX. CHANGE LAYER,ROW,COL
 ------------------------------------------------------------------------------------------------------------------------------------
<<<<<<< Updated upstream
   0.1370E-03 ( 13,  3, 55)  0.3400E-05 (  5,  2, 65)  0.5787E-06 (  6,  1, 56)  0.7073E-07 (  6,  1, 54)


                                          ================================================
                                                         FROM TIME =   93.000     TO    94.000    
=======
   0.8668E-04 ( 14,  2, 57)  0.2096E-05 (  5,  2, 63)  0.3530E-06 (  4,  2, 56)  0.7652E-07 (  3,  2, 44)
 UBDSV1 SAVING "         STORAGE" ON UNIT  53 AT TIME STEP 91, STRESS PERIOD   2
 UBDSV2 SAVING "   CONSTANT HEAD" ON UNIT  53 AT TIME STEP 91, STRESS PERIOD   2
 UBDSV1 SAVING "FLOW RIGHT FACE " ON UNIT  53 AT TIME STEP 91, STRESS PERIOD   2
 UBDSV1 SAVING "FLOW FRONT FACE " ON UNIT  53 AT TIME STEP 91, STRESS PERIOD   2
 UBDSV1 SAVING "FLOW LOWER FACE " ON UNIT  53 AT TIME STEP 91, STRESS PERIOD   2
 UBDSV1 SAVING "            DCDT" ON UNIT  53 AT TIME STEP 91, STRESS PERIOD   2

 HEAD WILL BE SAVED ON UNIT   51 AT END OF TIME STEP  91, STRESS PERIOD    2


                                          ================================================
                                                         FROM TIME =   92.000     TO    93.000    
>>>>>>> Stashed changes

 
 SOLVING FOR HEAD 
 FLOW MODEL IS TRANSIENT
 FLOW MODEL CONTAINS CONSTANT-HEAD CELLS


 MAXIMUM STEPSIZE DURING WHICH ANY PARTICLE CANNOT MOVE MORE THAN ONE CELL
<<<<<<< Updated upstream
 = 0.1632    (WHEN MIN. R.F.=1)  AT K=   3, I=   2, J=  29

 MAXIMUM STEPSIZE WHICH MEETS STABILITY CRITERION OF THE ADVECTION TERM
 (FOR PURE FINITE-DIFFERENCE OPTION, MIXELM=0) 
 = 0.1132    (WHEN MIN. R.F.=1)  AT K=   3, I=   2, J=  28
=======
 = 0.1869    (WHEN MIN. R.F.=1)  AT K=   3, I=   2, J=  31

 MAXIMUM STEPSIZE WHICH MEETS STABILITY CRITERION OF THE ADVECTION TERM
 (FOR PURE FINITE-DIFFERENCE OPTION, MIXELM=0) 
 = 0.1248    (WHEN MIN. R.F.=1)  AT K=   3, I=   2, J=  30
>>>>>>> Stashed changes


 TOTAL NUMBER OF POINT SOURCES/SINKS PRESENT IN THE FLOW MODEL =   240

 MAXIMUM STEPSIZE WHICH MEETS STABILITY CRITERION OF THE SINK & SOURCE TERM
 = 0.1000E+31(WHEN MIN. R.F.=1)  AT K=   0, I=   0, J=   0

 MAXIMUM STEPSIZE WHICH MEETS STABILITY CRITERION OF THE DISPERSION TERM
<<<<<<< Updated upstream
 = 0.6194E-02(WHEN MIN. R.F.=1)  AT K=   3, I=   2, J=  31


     1 CALLS TO GCG PACKAGE FOR TRANSPORT TIME STEP   1 IN FLOW TIME STEP  93 STRESS PERIOD   2
    11 TOTAL ITERATIONS

 NO OUTPUT CONTROL FOR STRESS PERIOD    2   TIME STEP  93
=======
 = 0.6695E-02(WHEN MIN. R.F.=1)  AT K=   3, I=   2, J=  30


     1 CALLS TO GCG PACKAGE FOR TRANSPORT TIME STEP   1 IN FLOW TIME STEP  92 STRESS PERIOD   2
    13 TOTAL ITERATIONS

 OUTPUT CONTROL FOR STRESS PERIOD    2   TIME STEP  92
    SAVE HEAD FOR ALL LAYERS
    SAVE BUDGET
>>>>>>> Stashed changes
 
 SOLVING FOR HEAD 
 FLOW MODEL IS TRANSIENT
 FLOW MODEL CONTAINS CONSTANT-HEAD CELLS


 MAXIMUM STEPSIZE DURING WHICH ANY PARTICLE CANNOT MOVE MORE THAN ONE CELL
<<<<<<< Updated upstream
 = 0.1632    (WHEN MIN. R.F.=1)  AT K=   3, I=   2, J=  29

 MAXIMUM STEPSIZE WHICH MEETS STABILITY CRITERION OF THE ADVECTION TERM
 (FOR PURE FINITE-DIFFERENCE OPTION, MIXELM=0) 
 = 0.1132    (WHEN MIN. R.F.=1)  AT K=   3, I=   2, J=  28
=======
 = 0.1869    (WHEN MIN. R.F.=1)  AT K=   3, I=   2, J=  31

 MAXIMUM STEPSIZE WHICH MEETS STABILITY CRITERION OF THE ADVECTION TERM
 (FOR PURE FINITE-DIFFERENCE OPTION, MIXELM=0) 
 = 0.1248    (WHEN MIN. R.F.=1)  AT K=   3, I=   2, J=  30
>>>>>>> Stashed changes


 TOTAL NUMBER OF POINT SOURCES/SINKS PRESENT IN THE FLOW MODEL =   240

 MAXIMUM STEPSIZE WHICH MEETS STABILITY CRITERION OF THE SINK & SOURCE TERM
 = 0.1000E+31(WHEN MIN. R.F.=1)  AT K=   0, I=   0, J=   0

 MAXIMUM STEPSIZE WHICH MEETS STABILITY CRITERION OF THE DISPERSION TERM
<<<<<<< Updated upstream
 = 0.6194E-02(WHEN MIN. R.F.=1)  AT K=   3, I=   2, J=  31
     1 CALLS TO GCG PACKAGE FOR TRANSPORT TIME STEP   2 IN FLOW TIME STEP  93 STRESS PERIOD   2
    11 TOTAL ITERATIONS
=======
 = 0.6695E-02(WHEN MIN. R.F.=1)  AT K=   3, I=   2, J=  30
     1 CALLS TO GCG PACKAGE FOR TRANSPORT TIME STEP   2 IN FLOW TIME STEP  92 STRESS PERIOD   2
    13 TOTAL ITERATIONS
>>>>>>> Stashed changes
 
 SOLVING FOR HEAD 
 FLOW MODEL IS TRANSIENT
 FLOW MODEL CONTAINS CONSTANT-HEAD CELLS


 MAXIMUM STEPSIZE DURING WHICH ANY PARTICLE CANNOT MOVE MORE THAN ONE CELL
<<<<<<< Updated upstream
 = 0.1632    (WHEN MIN. R.F.=1)  AT K=   3, I=   2, J=  29

 MAXIMUM STEPSIZE WHICH MEETS STABILITY CRITERION OF THE ADVECTION TERM
 (FOR PURE FINITE-DIFFERENCE OPTION, MIXELM=0) 
 = 0.1132    (WHEN MIN. R.F.=1)  AT K=   3, I=   2, J=  28
=======
 = 0.1869    (WHEN MIN. R.F.=1)  AT K=   3, I=   2, J=  31

 MAXIMUM STEPSIZE WHICH MEETS STABILITY CRITERION OF THE ADVECTION TERM
 (FOR PURE FINITE-DIFFERENCE OPTION, MIXELM=0) 
 = 0.1248    (WHEN MIN. R.F.=1)  AT K=   3, I=   2, J=  30
>>>>>>> Stashed changes


 TOTAL NUMBER OF POINT SOURCES/SINKS PRESENT IN THE FLOW MODEL =   240

 MAXIMUM STEPSIZE WHICH MEETS STABILITY CRITERION OF THE SINK & SOURCE TERM
 = 0.1000E+31(WHEN MIN. R.F.=1)  AT K=   0, I=   0, J=   0

 MAXIMUM STEPSIZE WHICH MEETS STABILITY CRITERION OF THE DISPERSION TERM
<<<<<<< Updated upstream
 = 0.6194E-02(WHEN MIN. R.F.=1)  AT K=   3, I=   2, J=  31
     1 CALLS TO GCG PACKAGE FOR TRANSPORT TIME STEP   3 IN FLOW TIME STEP  93 STRESS PERIOD   2
    11 TOTAL ITERATIONS
=======
 = 0.6695E-02(WHEN MIN. R.F.=1)  AT K=   3, I=   2, J=  30
     1 CALLS TO GCG PACKAGE FOR TRANSPORT TIME STEP   3 IN FLOW TIME STEP  92 STRESS PERIOD   2
    13 TOTAL ITERATIONS
>>>>>>> Stashed changes
 
 SOLVING FOR HEAD 
 FLOW MODEL IS TRANSIENT
 FLOW MODEL CONTAINS CONSTANT-HEAD CELLS


 MAXIMUM STEPSIZE DURING WHICH ANY PARTICLE CANNOT MOVE MORE THAN ONE CELL
<<<<<<< Updated upstream
 = 0.1632    (WHEN MIN. R.F.=1)  AT K=   3, I=   2, J=  29

 MAXIMUM STEPSIZE WHICH MEETS STABILITY CRITERION OF THE ADVECTION TERM
 (FOR PURE FINITE-DIFFERENCE OPTION, MIXELM=0) 
 = 0.1132    (WHEN MIN. R.F.=1)  AT K=   3, I=   2, J=  28
=======
 = 0.1869    (WHEN MIN. R.F.=1)  AT K=   3, I=   2, J=  31

 MAXIMUM STEPSIZE WHICH MEETS STABILITY CRITERION OF THE ADVECTION TERM
 (FOR PURE FINITE-DIFFERENCE OPTION, MIXELM=0) 
 = 0.1248    (WHEN MIN. R.F.=1)  AT K=   3, I=   2, J=  30
>>>>>>> Stashed changes


 TOTAL NUMBER OF POINT SOURCES/SINKS PRESENT IN THE FLOW MODEL =   240

 MAXIMUM STEPSIZE WHICH MEETS STABILITY CRITERION OF THE SINK & SOURCE TERM
 = 0.1000E+31(WHEN MIN. R.F.=1)  AT K=   0, I=   0, J=   0

 MAXIMUM STEPSIZE WHICH MEETS STABILITY CRITERION OF THE DISPERSION TERM
<<<<<<< Updated upstream
 = 0.6194E-02(WHEN MIN. R.F.=1)  AT K=   3, I=   2, J=  31
     1 CALLS TO GCG PACKAGE FOR TRANSPORT TIME STEP   4 IN FLOW TIME STEP  93 STRESS PERIOD   2
    11 TOTAL ITERATIONS
=======
 = 0.6695E-02(WHEN MIN. R.F.=1)  AT K=   3, I=   2, J=  30
     1 CALLS TO GCG PACKAGE FOR TRANSPORT TIME STEP   4 IN FLOW TIME STEP  92 STRESS PERIOD   2
    13 TOTAL ITERATIONS
>>>>>>> Stashed changes
 
 SOLVING FOR HEAD 
 FLOW MODEL IS TRANSIENT
 FLOW MODEL CONTAINS CONSTANT-HEAD CELLS


 MAXIMUM STEPSIZE DURING WHICH ANY PARTICLE CANNOT MOVE MORE THAN ONE CELL
<<<<<<< Updated upstream
 = 0.1632    (WHEN MIN. R.F.=1)  AT K=   3, I=   2, J=  29

 MAXIMUM STEPSIZE WHICH MEETS STABILITY CRITERION OF THE ADVECTION TERM
 (FOR PURE FINITE-DIFFERENCE OPTION, MIXELM=0) 
 = 0.1132    (WHEN MIN. R.F.=1)  AT K=   3, I=   2, J=  28
=======
 = 0.1869    (WHEN MIN. R.F.=1)  AT K=   3, I=   2, J=  31

 MAXIMUM STEPSIZE WHICH MEETS STABILITY CRITERION OF THE ADVECTION TERM
 (FOR PURE FINITE-DIFFERENCE OPTION, MIXELM=0) 
 = 0.1248    (WHEN MIN. R.F.=1)  AT K=   3, I=   2, J=  30
>>>>>>> Stashed changes


 TOTAL NUMBER OF POINT SOURCES/SINKS PRESENT IN THE FLOW MODEL =   240

 MAXIMUM STEPSIZE WHICH MEETS STABILITY CRITERION OF THE SINK & SOURCE TERM
 = 0.1000E+31(WHEN MIN. R.F.=1)  AT K=   0, I=   0, J=   0

 MAXIMUM STEPSIZE WHICH MEETS STABILITY CRITERION OF THE DISPERSION TERM
<<<<<<< Updated upstream
 = 0.6194E-02(WHEN MIN. R.F.=1)  AT K=   3, I=   2, J=  31
     1 CALLS TO GCG PACKAGE FOR TRANSPORT TIME STEP   5 IN FLOW TIME STEP  93 STRESS PERIOD   2
    11 TOTAL ITERATIONS
=======
 = 0.6695E-02(WHEN MIN. R.F.=1)  AT K=   3, I=   2, J=  30
     1 CALLS TO GCG PACKAGE FOR TRANSPORT TIME STEP   5 IN FLOW TIME STEP  92 STRESS PERIOD   2
    12 TOTAL ITERATIONS
>>>>>>> Stashed changes
 
 SOLVING FOR HEAD 
 FLOW MODEL IS TRANSIENT
 FLOW MODEL CONTAINS CONSTANT-HEAD CELLS


 MAXIMUM STEPSIZE DURING WHICH ANY PARTICLE CANNOT MOVE MORE THAN ONE CELL
<<<<<<< Updated upstream
 = 0.1632    (WHEN MIN. R.F.=1)  AT K=   3, I=   2, J=  29

 MAXIMUM STEPSIZE WHICH MEETS STABILITY CRITERION OF THE ADVECTION TERM
 (FOR PURE FINITE-DIFFERENCE OPTION, MIXELM=0) 
 = 0.1132    (WHEN MIN. R.F.=1)  AT K=   3, I=   2, J=  28
=======
 = 0.1869    (WHEN MIN. R.F.=1)  AT K=   3, I=   2, J=  31

 MAXIMUM STEPSIZE WHICH MEETS STABILITY CRITERION OF THE ADVECTION TERM
 (FOR PURE FINITE-DIFFERENCE OPTION, MIXELM=0) 
 = 0.1248    (WHEN MIN. R.F.=1)  AT K=   3, I=   2, J=  30
>>>>>>> Stashed changes


 TOTAL NUMBER OF POINT SOURCES/SINKS PRESENT IN THE FLOW MODEL =   240

 MAXIMUM STEPSIZE WHICH MEETS STABILITY CRITERION OF THE SINK & SOURCE TERM
 = 0.1000E+31(WHEN MIN. R.F.=1)  AT K=   0, I=   0, J=   0

 MAXIMUM STEPSIZE WHICH MEETS STABILITY CRITERION OF THE DISPERSION TERM
<<<<<<< Updated upstream
 = 0.6194E-02(WHEN MIN. R.F.=1)  AT K=   3, I=   2, J=  31
     1 CALLS TO GCG PACKAGE FOR TRANSPORT TIME STEP   6 IN FLOW TIME STEP  93 STRESS PERIOD   2
    11 TOTAL ITERATIONS
=======
 = 0.6695E-02(WHEN MIN. R.F.=1)  AT K=   3, I=   2, J=  30
     1 CALLS TO GCG PACKAGE FOR TRANSPORT TIME STEP   6 IN FLOW TIME STEP  92 STRESS PERIOD   2
    12 TOTAL ITERATIONS
>>>>>>> Stashed changes
 
 SOLVING FOR HEAD 
 FLOW MODEL IS TRANSIENT
 FLOW MODEL CONTAINS CONSTANT-HEAD CELLS


 MAXIMUM STEPSIZE DURING WHICH ANY PARTICLE CANNOT MOVE MORE THAN ONE CELL
<<<<<<< Updated upstream
 = 0.1632    (WHEN MIN. R.F.=1)  AT K=   3, I=   2, J=  29

 MAXIMUM STEPSIZE WHICH MEETS STABILITY CRITERION OF THE ADVECTION TERM
 (FOR PURE FINITE-DIFFERENCE OPTION, MIXELM=0) 
 = 0.1132    (WHEN MIN. R.F.=1)  AT K=   3, I=   2, J=  28
=======
 = 0.1869    (WHEN MIN. R.F.=1)  AT K=   3, I=   2, J=  31

 MAXIMUM STEPSIZE WHICH MEETS STABILITY CRITERION OF THE ADVECTION TERM
 (FOR PURE FINITE-DIFFERENCE OPTION, MIXELM=0) 
 = 0.1248    (WHEN MIN. R.F.=1)  AT K=   3, I=   2, J=  30
>>>>>>> Stashed changes


 TOTAL NUMBER OF POINT SOURCES/SINKS PRESENT IN THE FLOW MODEL =   240

 MAXIMUM STEPSIZE WHICH MEETS STABILITY CRITERION OF THE SINK & SOURCE TERM
 = 0.1000E+31(WHEN MIN. R.F.=1)  AT K=   0, I=   0, J=   0

 MAXIMUM STEPSIZE WHICH MEETS STABILITY CRITERION OF THE DISPERSION TERM
<<<<<<< Updated upstream
 = 0.6194E-02(WHEN MIN. R.F.=1)  AT K=   3, I=   2, J=  31
     1 CALLS TO GCG PACKAGE FOR TRANSPORT TIME STEP   7 IN FLOW TIME STEP  93 STRESS PERIOD   2
    10 TOTAL ITERATIONS
=======
 = 0.6695E-02(WHEN MIN. R.F.=1)  AT K=   3, I=   2, J=  30
     1 CALLS TO GCG PACKAGE FOR TRANSPORT TIME STEP   7 IN FLOW TIME STEP  92 STRESS PERIOD   2
    13 TOTAL ITERATIONS
>>>>>>> Stashed changes
 
 SOLVING FOR HEAD 
 FLOW MODEL IS TRANSIENT
 FLOW MODEL CONTAINS CONSTANT-HEAD CELLS


 MAXIMUM STEPSIZE DURING WHICH ANY PARTICLE CANNOT MOVE MORE THAN ONE CELL
<<<<<<< Updated upstream
 = 0.1632    (WHEN MIN. R.F.=1)  AT K=   3, I=   2, J=  29

 MAXIMUM STEPSIZE WHICH MEETS STABILITY CRITERION OF THE ADVECTION TERM
 (FOR PURE FINITE-DIFFERENCE OPTION, MIXELM=0) 
 = 0.1132    (WHEN MIN. R.F.=1)  AT K=   3, I=   2, J=  28
=======
 = 0.1869    (WHEN MIN. R.F.=1)  AT K=   3, I=   2, J=  31

 MAXIMUM STEPSIZE WHICH MEETS STABILITY CRITERION OF THE ADVECTION TERM
 (FOR PURE FINITE-DIFFERENCE OPTION, MIXELM=0) 
 = 0.1248    (WHEN MIN. R.F.=1)  AT K=   3, I=   2, J=  30
>>>>>>> Stashed changes


 TOTAL NUMBER OF POINT SOURCES/SINKS PRESENT IN THE FLOW MODEL =   240

 MAXIMUM STEPSIZE WHICH MEETS STABILITY CRITERION OF THE SINK & SOURCE TERM
 = 0.1000E+31(WHEN MIN. R.F.=1)  AT K=   0, I=   0, J=   0

 MAXIMUM STEPSIZE WHICH MEETS STABILITY CRITERION OF THE DISPERSION TERM
<<<<<<< Updated upstream
 = 0.6194E-02(WHEN MIN. R.F.=1)  AT K=   3, I=   2, J=  31
     1 CALLS TO GCG PACKAGE FOR TRANSPORT TIME STEP   8 IN FLOW TIME STEP  93 STRESS PERIOD   2
    11 TOTAL ITERATIONS
=======
 = 0.6695E-02(WHEN MIN. R.F.=1)  AT K=   3, I=   2, J=  30
     1 CALLS TO GCG PACKAGE FOR TRANSPORT TIME STEP   8 IN FLOW TIME STEP  92 STRESS PERIOD   2
     4 TOTAL ITERATIONS
  MAXIMUM CONCENTRATION CHANGES FOR EACH ITERATION:
  MAX. CHANGE LAYER,ROW,COL MAX. CHANGE LAYER,ROW,COL MAX. CHANGE LAYER,ROW,COL MAX. CHANGE LAYER,ROW,COL MAX. CHANGE LAYER,ROW,COL
 ------------------------------------------------------------------------------------------------------------------------------------
   0.8568E-04 ( 14,  2, 57)  0.2049E-05 (  5,  2, 63)  0.3441E-06 (  4,  2, 56)  0.7320E-07 (  3,  2, 44)
 UBDSV1 SAVING "         STORAGE" ON UNIT  53 AT TIME STEP 92, STRESS PERIOD   2
 UBDSV2 SAVING "   CONSTANT HEAD" ON UNIT  53 AT TIME STEP 92, STRESS PERIOD   2
 UBDSV1 SAVING "FLOW RIGHT FACE " ON UNIT  53 AT TIME STEP 92, STRESS PERIOD   2
 UBDSV1 SAVING "FLOW FRONT FACE " ON UNIT  53 AT TIME STEP 92, STRESS PERIOD   2
 UBDSV1 SAVING "FLOW LOWER FACE " ON UNIT  53 AT TIME STEP 92, STRESS PERIOD   2
 UBDSV1 SAVING "            DCDT" ON UNIT  53 AT TIME STEP 92, STRESS PERIOD   2

 HEAD WILL BE SAVED ON UNIT   51 AT END OF TIME STEP  92, STRESS PERIOD    2


                                          ================================================
                                                         FROM TIME =   93.000     TO    94.000    

>>>>>>> Stashed changes
 
 SOLVING FOR HEAD 
 FLOW MODEL IS TRANSIENT
 FLOW MODEL CONTAINS CONSTANT-HEAD CELLS


 MAXIMUM STEPSIZE DURING WHICH ANY PARTICLE CANNOT MOVE MORE THAN ONE CELL
<<<<<<< Updated upstream
 = 0.1632    (WHEN MIN. R.F.=1)  AT K=   3, I=   2, J=  29

 MAXIMUM STEPSIZE WHICH MEETS STABILITY CRITERION OF THE ADVECTION TERM
 (FOR PURE FINITE-DIFFERENCE OPTION, MIXELM=0) 
 = 0.1132    (WHEN MIN. R.F.=1)  AT K=   3, I=   2, J=  28
=======
 = 0.1869    (WHEN MIN. R.F.=1)  AT K=   3, I=   2, J=  31

 MAXIMUM STEPSIZE WHICH MEETS STABILITY CRITERION OF THE ADVECTION TERM
 (FOR PURE FINITE-DIFFERENCE OPTION, MIXELM=0) 
 = 0.1248    (WHEN MIN. R.F.=1)  AT K=   3, I=   2, J=  30
>>>>>>> Stashed changes


 TOTAL NUMBER OF POINT SOURCES/SINKS PRESENT IN THE FLOW MODEL =   240

 MAXIMUM STEPSIZE WHICH MEETS STABILITY CRITERION OF THE SINK & SOURCE TERM
 = 0.1000E+31(WHEN MIN. R.F.=1)  AT K=   0, I=   0, J=   0

 MAXIMUM STEPSIZE WHICH MEETS STABILITY CRITERION OF THE DISPERSION TERM
<<<<<<< Updated upstream
 = 0.6194E-02(WHEN MIN. R.F.=1)  AT K=   3, I=   2, J=  31
     1 CALLS TO GCG PACKAGE FOR TRANSPORT TIME STEP   9 IN FLOW TIME STEP  93 STRESS PERIOD   2
     4 TOTAL ITERATIONS
  MAXIMUM CONCENTRATION CHANGES FOR EACH ITERATION:
  MAX. CHANGE LAYER,ROW,COL MAX. CHANGE LAYER,ROW,COL MAX. CHANGE LAYER,ROW,COL MAX. CHANGE LAYER,ROW,COL MAX. CHANGE LAYER,ROW,COL
 ------------------------------------------------------------------------------------------------------------------------------------
   0.1373E-03 ( 13,  3, 55)  0.3329E-05 (  5,  2, 65)  0.5641E-06 (  6,  1, 56)  0.6913E-07 (  6,  1, 54)


                                          ================================================
                                                         FROM TIME =   94.000     TO    95.000    

=======
 = 0.6695E-02(WHEN MIN. R.F.=1)  AT K=   3, I=   2, J=  30


     1 CALLS TO GCG PACKAGE FOR TRANSPORT TIME STEP   1 IN FLOW TIME STEP  93 STRESS PERIOD   2
    12 TOTAL ITERATIONS

 OUTPUT CONTROL FOR STRESS PERIOD    2   TIME STEP  93
    SAVE HEAD FOR ALL LAYERS
    SAVE BUDGET
>>>>>>> Stashed changes
 
 SOLVING FOR HEAD 
 FLOW MODEL IS TRANSIENT
 FLOW MODEL CONTAINS CONSTANT-HEAD CELLS


 MAXIMUM STEPSIZE DURING WHICH ANY PARTICLE CANNOT MOVE MORE THAN ONE CELL
<<<<<<< Updated upstream
 = 0.1632    (WHEN MIN. R.F.=1)  AT K=   3, I=   2, J=  29

 MAXIMUM STEPSIZE WHICH MEETS STABILITY CRITERION OF THE ADVECTION TERM
 (FOR PURE FINITE-DIFFERENCE OPTION, MIXELM=0) 
 = 0.1132    (WHEN MIN. R.F.=1)  AT K=   3, I=   2, J=  28
=======
 = 0.1869    (WHEN MIN. R.F.=1)  AT K=   3, I=   2, J=  31

 MAXIMUM STEPSIZE WHICH MEETS STABILITY CRITERION OF THE ADVECTION TERM
 (FOR PURE FINITE-DIFFERENCE OPTION, MIXELM=0) 
 = 0.1248    (WHEN MIN. R.F.=1)  AT K=   3, I=   2, J=  30
>>>>>>> Stashed changes


 TOTAL NUMBER OF POINT SOURCES/SINKS PRESENT IN THE FLOW MODEL =   240

 MAXIMUM STEPSIZE WHICH MEETS STABILITY CRITERION OF THE SINK & SOURCE TERM
 = 0.1000E+31(WHEN MIN. R.F.=1)  AT K=   0, I=   0, J=   0

 MAXIMUM STEPSIZE WHICH MEETS STABILITY CRITERION OF THE DISPERSION TERM
<<<<<<< Updated upstream
 = 0.6194E-02(WHEN MIN. R.F.=1)  AT K=   3, I=   2, J=  31


     1 CALLS TO GCG PACKAGE FOR TRANSPORT TIME STEP   1 IN FLOW TIME STEP  94 STRESS PERIOD   2
    11 TOTAL ITERATIONS

 NO OUTPUT CONTROL FOR STRESS PERIOD    2   TIME STEP  94
=======
 = 0.6695E-02(WHEN MIN. R.F.=1)  AT K=   3, I=   2, J=  30
     1 CALLS TO GCG PACKAGE FOR TRANSPORT TIME STEP   2 IN FLOW TIME STEP  93 STRESS PERIOD   2
    12 TOTAL ITERATIONS
>>>>>>> Stashed changes
 
 SOLVING FOR HEAD 
 FLOW MODEL IS TRANSIENT
 FLOW MODEL CONTAINS CONSTANT-HEAD CELLS


 MAXIMUM STEPSIZE DURING WHICH ANY PARTICLE CANNOT MOVE MORE THAN ONE CELL
<<<<<<< Updated upstream
 = 0.1632    (WHEN MIN. R.F.=1)  AT K=   3, I=   2, J=  29

 MAXIMUM STEPSIZE WHICH MEETS STABILITY CRITERION OF THE ADVECTION TERM
 (FOR PURE FINITE-DIFFERENCE OPTION, MIXELM=0) 
 = 0.1132    (WHEN MIN. R.F.=1)  AT K=   3, I=   2, J=  28
=======
 = 0.1869    (WHEN MIN. R.F.=1)  AT K=   3, I=   2, J=  31

 MAXIMUM STEPSIZE WHICH MEETS STABILITY CRITERION OF THE ADVECTION TERM
 (FOR PURE FINITE-DIFFERENCE OPTION, MIXELM=0) 
 = 0.1248    (WHEN MIN. R.F.=1)  AT K=   3, I=   2, J=  30
>>>>>>> Stashed changes


 TOTAL NUMBER OF POINT SOURCES/SINKS PRESENT IN THE FLOW MODEL =   240

 MAXIMUM STEPSIZE WHICH MEETS STABILITY CRITERION OF THE SINK & SOURCE TERM
 = 0.1000E+31(WHEN MIN. R.F.=1)  AT K=   0, I=   0, J=   0

 MAXIMUM STEPSIZE WHICH MEETS STABILITY CRITERION OF THE DISPERSION TERM
<<<<<<< Updated upstream
 = 0.6194E-02(WHEN MIN. R.F.=1)  AT K=   3, I=   2, J=  31
     1 CALLS TO GCG PACKAGE FOR TRANSPORT TIME STEP   2 IN FLOW TIME STEP  94 STRESS PERIOD   2
    10 TOTAL ITERATIONS
=======
 = 0.6695E-02(WHEN MIN. R.F.=1)  AT K=   3, I=   2, J=  30
     1 CALLS TO GCG PACKAGE FOR TRANSPORT TIME STEP   3 IN FLOW TIME STEP  93 STRESS PERIOD   2
    12 TOTAL ITERATIONS
>>>>>>> Stashed changes
 
 SOLVING FOR HEAD 
 FLOW MODEL IS TRANSIENT
 FLOW MODEL CONTAINS CONSTANT-HEAD CELLS


 MAXIMUM STEPSIZE DURING WHICH ANY PARTICLE CANNOT MOVE MORE THAN ONE CELL
<<<<<<< Updated upstream
 = 0.1632    (WHEN MIN. R.F.=1)  AT K=   3, I=   2, J=  29

 MAXIMUM STEPSIZE WHICH MEETS STABILITY CRITERION OF THE ADVECTION TERM
 (FOR PURE FINITE-DIFFERENCE OPTION, MIXELM=0) 
 = 0.1132    (WHEN MIN. R.F.=1)  AT K=   3, I=   2, J=  28
=======
 = 0.1869    (WHEN MIN. R.F.=1)  AT K=   3, I=   2, J=  31

 MAXIMUM STEPSIZE WHICH MEETS STABILITY CRITERION OF THE ADVECTION TERM
 (FOR PURE FINITE-DIFFERENCE OPTION, MIXELM=0) 
 = 0.1248    (WHEN MIN. R.F.=1)  AT K=   3, I=   2, J=  30
>>>>>>> Stashed changes


 TOTAL NUMBER OF POINT SOURCES/SINKS PRESENT IN THE FLOW MODEL =   240

 MAXIMUM STEPSIZE WHICH MEETS STABILITY CRITERION OF THE SINK & SOURCE TERM
 = 0.1000E+31(WHEN MIN. R.F.=1)  AT K=   0, I=   0, J=   0

 MAXIMUM STEPSIZE WHICH MEETS STABILITY CRITERION OF THE DISPERSION TERM
<<<<<<< Updated upstream
 = 0.6194E-02(WHEN MIN. R.F.=1)  AT K=   3, I=   2, J=  31
     1 CALLS TO GCG PACKAGE FOR TRANSPORT TIME STEP   3 IN FLOW TIME STEP  94 STRESS PERIOD   2
    11 TOTAL ITERATIONS
=======
 = 0.6695E-02(WHEN MIN. R.F.=1)  AT K=   3, I=   2, J=  30
     1 CALLS TO GCG PACKAGE FOR TRANSPORT TIME STEP   4 IN FLOW TIME STEP  93 STRESS PERIOD   2
    13 TOTAL ITERATIONS
>>>>>>> Stashed changes
 
 SOLVING FOR HEAD 
 FLOW MODEL IS TRANSIENT
 FLOW MODEL CONTAINS CONSTANT-HEAD CELLS


 MAXIMUM STEPSIZE DURING WHICH ANY PARTICLE CANNOT MOVE MORE THAN ONE CELL
<<<<<<< Updated upstream
 = 0.1632    (WHEN MIN. R.F.=1)  AT K=   3, I=   2, J=  29

 MAXIMUM STEPSIZE WHICH MEETS STABILITY CRITERION OF THE ADVECTION TERM
 (FOR PURE FINITE-DIFFERENCE OPTION, MIXELM=0) 
 = 0.1132    (WHEN MIN. R.F.=1)  AT K=   3, I=   2, J=  28
=======
 = 0.1869    (WHEN MIN. R.F.=1)  AT K=   3, I=   2, J=  31

 MAXIMUM STEPSIZE WHICH MEETS STABILITY CRITERION OF THE ADVECTION TERM
 (FOR PURE FINITE-DIFFERENCE OPTION, MIXELM=0) 
 = 0.1248    (WHEN MIN. R.F.=1)  AT K=   3, I=   2, J=  30
>>>>>>> Stashed changes


 TOTAL NUMBER OF POINT SOURCES/SINKS PRESENT IN THE FLOW MODEL =   240

 MAXIMUM STEPSIZE WHICH MEETS STABILITY CRITERION OF THE SINK & SOURCE TERM
 = 0.1000E+31(WHEN MIN. R.F.=1)  AT K=   0, I=   0, J=   0

 MAXIMUM STEPSIZE WHICH MEETS STABILITY CRITERION OF THE DISPERSION TERM
<<<<<<< Updated upstream
 = 0.6194E-02(WHEN MIN. R.F.=1)  AT K=   3, I=   2, J=  31
     1 CALLS TO GCG PACKAGE FOR TRANSPORT TIME STEP   4 IN FLOW TIME STEP  94 STRESS PERIOD   2
    11 TOTAL ITERATIONS
=======
 = 0.6695E-02(WHEN MIN. R.F.=1)  AT K=   3, I=   2, J=  30
     1 CALLS TO GCG PACKAGE FOR TRANSPORT TIME STEP   5 IN FLOW TIME STEP  93 STRESS PERIOD   2
    13 TOTAL ITERATIONS
>>>>>>> Stashed changes
 
 SOLVING FOR HEAD 
 FLOW MODEL IS TRANSIENT
 FLOW MODEL CONTAINS CONSTANT-HEAD CELLS


 MAXIMUM STEPSIZE DURING WHICH ANY PARTICLE CANNOT MOVE MORE THAN ONE CELL
<<<<<<< Updated upstream
 = 0.1632    (WHEN MIN. R.F.=1)  AT K=   3, I=   2, J=  29

 MAXIMUM STEPSIZE WHICH MEETS STABILITY CRITERION OF THE ADVECTION TERM
 (FOR PURE FINITE-DIFFERENCE OPTION, MIXELM=0) 
 = 0.1132    (WHEN MIN. R.F.=1)  AT K=   3, I=   2, J=  28
=======
 = 0.1869    (WHEN MIN. R.F.=1)  AT K=   3, I=   2, J=  31

 MAXIMUM STEPSIZE WHICH MEETS STABILITY CRITERION OF THE ADVECTION TERM
 (FOR PURE FINITE-DIFFERENCE OPTION, MIXELM=0) 
 = 0.1248    (WHEN MIN. R.F.=1)  AT K=   3, I=   2, J=  30
>>>>>>> Stashed changes


 TOTAL NUMBER OF POINT SOURCES/SINKS PRESENT IN THE FLOW MODEL =   240

 MAXIMUM STEPSIZE WHICH MEETS STABILITY CRITERION OF THE SINK & SOURCE TERM
 = 0.1000E+31(WHEN MIN. R.F.=1)  AT K=   0, I=   0, J=   0

 MAXIMUM STEPSIZE WHICH MEETS STABILITY CRITERION OF THE DISPERSION TERM
<<<<<<< Updated upstream
 = 0.6193E-02(WHEN MIN. R.F.=1)  AT K=   3, I=   2, J=  31
     1 CALLS TO GCG PACKAGE FOR TRANSPORT TIME STEP   5 IN FLOW TIME STEP  94 STRESS PERIOD   2
    11 TOTAL ITERATIONS
=======
 = 0.6695E-02(WHEN MIN. R.F.=1)  AT K=   3, I=   2, J=  30
     1 CALLS TO GCG PACKAGE FOR TRANSPORT TIME STEP   6 IN FLOW TIME STEP  93 STRESS PERIOD   2
    12 TOTAL ITERATIONS
>>>>>>> Stashed changes
 
 SOLVING FOR HEAD 
 FLOW MODEL IS TRANSIENT
 FLOW MODEL CONTAINS CONSTANT-HEAD CELLS


 MAXIMUM STEPSIZE DURING WHICH ANY PARTICLE CANNOT MOVE MORE THAN ONE CELL
<<<<<<< Updated upstream
 = 0.1632    (WHEN MIN. R.F.=1)  AT K=   3, I=   2, J=  29

 MAXIMUM STEPSIZE WHICH MEETS STABILITY CRITERION OF THE ADVECTION TERM
 (FOR PURE FINITE-DIFFERENCE OPTION, MIXELM=0) 
 = 0.1132    (WHEN MIN. R.F.=1)  AT K=   3, I=   2, J=  28
=======
 = 0.1869    (WHEN MIN. R.F.=1)  AT K=   3, I=   2, J=  31

 MAXIMUM STEPSIZE WHICH MEETS STABILITY CRITERION OF THE ADVECTION TERM
 (FOR PURE FINITE-DIFFERENCE OPTION, MIXELM=0) 
 = 0.1248    (WHEN MIN. R.F.=1)  AT K=   3, I=   2, J=  30
>>>>>>> Stashed changes


 TOTAL NUMBER OF POINT SOURCES/SINKS PRESENT IN THE FLOW MODEL =   240

 MAXIMUM STEPSIZE WHICH MEETS STABILITY CRITERION OF THE SINK & SOURCE TERM
 = 0.1000E+31(WHEN MIN. R.F.=1)  AT K=   0, I=   0, J=   0

 MAXIMUM STEPSIZE WHICH MEETS STABILITY CRITERION OF THE DISPERSION TERM
<<<<<<< Updated upstream
 = 0.6193E-02(WHEN MIN. R.F.=1)  AT K=   3, I=   2, J=  31
     1 CALLS TO GCG PACKAGE FOR TRANSPORT TIME STEP   6 IN FLOW TIME STEP  94 STRESS PERIOD   2
    11 TOTAL ITERATIONS
=======
 = 0.6695E-02(WHEN MIN. R.F.=1)  AT K=   3, I=   2, J=  30
     1 CALLS TO GCG PACKAGE FOR TRANSPORT TIME STEP   7 IN FLOW TIME STEP  93 STRESS PERIOD   2
    12 TOTAL ITERATIONS
>>>>>>> Stashed changes
 
 SOLVING FOR HEAD 
 FLOW MODEL IS TRANSIENT
 FLOW MODEL CONTAINS CONSTANT-HEAD CELLS


 MAXIMUM STEPSIZE DURING WHICH ANY PARTICLE CANNOT MOVE MORE THAN ONE CELL
<<<<<<< Updated upstream
 = 0.1632    (WHEN MIN. R.F.=1)  AT K=   3, I=   2, J=  29

 MAXIMUM STEPSIZE WHICH MEETS STABILITY CRITERION OF THE ADVECTION TERM
 (FOR PURE FINITE-DIFFERENCE OPTION, MIXELM=0) 
 = 0.1132    (WHEN MIN. R.F.=1)  AT K=   3, I=   2, J=  28
=======
 = 0.1869    (WHEN MIN. R.F.=1)  AT K=   3, I=   2, J=  31

 MAXIMUM STEPSIZE WHICH MEETS STABILITY CRITERION OF THE ADVECTION TERM
 (FOR PURE FINITE-DIFFERENCE OPTION, MIXELM=0) 
 = 0.1248    (WHEN MIN. R.F.=1)  AT K=   3, I=   2, J=  30
>>>>>>> Stashed changes


 TOTAL NUMBER OF POINT SOURCES/SINKS PRESENT IN THE FLOW MODEL =   240

 MAXIMUM STEPSIZE WHICH MEETS STABILITY CRITERION OF THE SINK & SOURCE TERM
 = 0.1000E+31(WHEN MIN. R.F.=1)  AT K=   0, I=   0, J=   0

 MAXIMUM STEPSIZE WHICH MEETS STABILITY CRITERION OF THE DISPERSION TERM
<<<<<<< Updated upstream
 = 0.6193E-02(WHEN MIN. R.F.=1)  AT K=   3, I=   2, J=  31
     1 CALLS TO GCG PACKAGE FOR TRANSPORT TIME STEP   7 IN FLOW TIME STEP  94 STRESS PERIOD   2
    10 TOTAL ITERATIONS
=======
 = 0.6695E-02(WHEN MIN. R.F.=1)  AT K=   3, I=   2, J=  30
     1 CALLS TO GCG PACKAGE FOR TRANSPORT TIME STEP   8 IN FLOW TIME STEP  93 STRESS PERIOD   2
     4 TOTAL ITERATIONS
  MAXIMUM CONCENTRATION CHANGES FOR EACH ITERATION:
  MAX. CHANGE LAYER,ROW,COL MAX. CHANGE LAYER,ROW,COL MAX. CHANGE LAYER,ROW,COL MAX. CHANGE LAYER,ROW,COL MAX. CHANGE LAYER,ROW,COL
 ------------------------------------------------------------------------------------------------------------------------------------
   0.8469E-04 ( 14,  2, 57)  0.2004E-05 (  5,  2, 63)  0.3354E-06 (  4,  2, 56)  0.7092E-07 (  3,  2, 44)
 UBDSV1 SAVING "         STORAGE" ON UNIT  53 AT TIME STEP 93, STRESS PERIOD   2
 UBDSV2 SAVING "   CONSTANT HEAD" ON UNIT  53 AT TIME STEP 93, STRESS PERIOD   2
 UBDSV1 SAVING "FLOW RIGHT FACE " ON UNIT  53 AT TIME STEP 93, STRESS PERIOD   2
 UBDSV1 SAVING "FLOW FRONT FACE " ON UNIT  53 AT TIME STEP 93, STRESS PERIOD   2
 UBDSV1 SAVING "FLOW LOWER FACE " ON UNIT  53 AT TIME STEP 93, STRESS PERIOD   2
 UBDSV1 SAVING "            DCDT" ON UNIT  53 AT TIME STEP 93, STRESS PERIOD   2

 HEAD WILL BE SAVED ON UNIT   51 AT END OF TIME STEP  93, STRESS PERIOD    2


                                          ================================================
                                                         FROM TIME =   94.000     TO    95.000    

>>>>>>> Stashed changes
 
 SOLVING FOR HEAD 
 FLOW MODEL IS TRANSIENT
 FLOW MODEL CONTAINS CONSTANT-HEAD CELLS


 MAXIMUM STEPSIZE DURING WHICH ANY PARTICLE CANNOT MOVE MORE THAN ONE CELL
<<<<<<< Updated upstream
 = 0.1632    (WHEN MIN. R.F.=1)  AT K=   3, I=   2, J=  29

 MAXIMUM STEPSIZE WHICH MEETS STABILITY CRITERION OF THE ADVECTION TERM
 (FOR PURE FINITE-DIFFERENCE OPTION, MIXELM=0) 
 = 0.1132    (WHEN MIN. R.F.=1)  AT K=   3, I=   2, J=  28
=======
 = 0.1869    (WHEN MIN. R.F.=1)  AT K=   3, I=   2, J=  31

 MAXIMUM STEPSIZE WHICH MEETS STABILITY CRITERION OF THE ADVECTION TERM
 (FOR PURE FINITE-DIFFERENCE OPTION, MIXELM=0) 
 = 0.1248    (WHEN MIN. R.F.=1)  AT K=   3, I=   2, J=  30
>>>>>>> Stashed changes


 TOTAL NUMBER OF POINT SOURCES/SINKS PRESENT IN THE FLOW MODEL =   240

 MAXIMUM STEPSIZE WHICH MEETS STABILITY CRITERION OF THE SINK & SOURCE TERM
 = 0.1000E+31(WHEN MIN. R.F.=1)  AT K=   0, I=   0, J=   0

 MAXIMUM STEPSIZE WHICH MEETS STABILITY CRITERION OF THE DISPERSION TERM
<<<<<<< Updated upstream
 = 0.6193E-02(WHEN MIN. R.F.=1)  AT K=   3, I=   2, J=  31
     1 CALLS TO GCG PACKAGE FOR TRANSPORT TIME STEP   8 IN FLOW TIME STEP  94 STRESS PERIOD   2
    10 TOTAL ITERATIONS
=======
 = 0.6695E-02(WHEN MIN. R.F.=1)  AT K=   3, I=   2, J=  30


     1 CALLS TO GCG PACKAGE FOR TRANSPORT TIME STEP   1 IN FLOW TIME STEP  94 STRESS PERIOD   2
    12 TOTAL ITERATIONS

 OUTPUT CONTROL FOR STRESS PERIOD    2   TIME STEP  94
    SAVE HEAD FOR ALL LAYERS
    SAVE BUDGET
>>>>>>> Stashed changes
 
 SOLVING FOR HEAD 
 FLOW MODEL IS TRANSIENT
 FLOW MODEL CONTAINS CONSTANT-HEAD CELLS


 MAXIMUM STEPSIZE DURING WHICH ANY PARTICLE CANNOT MOVE MORE THAN ONE CELL
<<<<<<< Updated upstream
 = 0.1632    (WHEN MIN. R.F.=1)  AT K=   3, I=   2, J=  29

 MAXIMUM STEPSIZE WHICH MEETS STABILITY CRITERION OF THE ADVECTION TERM
 (FOR PURE FINITE-DIFFERENCE OPTION, MIXELM=0) 
 = 0.1132    (WHEN MIN. R.F.=1)  AT K=   3, I=   2, J=  28
=======
 = 0.1869    (WHEN MIN. R.F.=1)  AT K=   3, I=   2, J=  31

 MAXIMUM STEPSIZE WHICH MEETS STABILITY CRITERION OF THE ADVECTION TERM
 (FOR PURE FINITE-DIFFERENCE OPTION, MIXELM=0) 
 = 0.1248    (WHEN MIN. R.F.=1)  AT K=   3, I=   2, J=  30
>>>>>>> Stashed changes


 TOTAL NUMBER OF POINT SOURCES/SINKS PRESENT IN THE FLOW MODEL =   240

 MAXIMUM STEPSIZE WHICH MEETS STABILITY CRITERION OF THE SINK & SOURCE TERM
 = 0.1000E+31(WHEN MIN. R.F.=1)  AT K=   0, I=   0, J=   0

 MAXIMUM STEPSIZE WHICH MEETS STABILITY CRITERION OF THE DISPERSION TERM
<<<<<<< Updated upstream
 = 0.6193E-02(WHEN MIN. R.F.=1)  AT K=   3, I=   2, J=  31
     1 CALLS TO GCG PACKAGE FOR TRANSPORT TIME STEP   9 IN FLOW TIME STEP  94 STRESS PERIOD   2
     4 TOTAL ITERATIONS
  MAXIMUM CONCENTRATION CHANGES FOR EACH ITERATION:
  MAX. CHANGE LAYER,ROW,COL MAX. CHANGE LAYER,ROW,COL MAX. CHANGE LAYER,ROW,COL MAX. CHANGE LAYER,ROW,COL MAX. CHANGE LAYER,ROW,COL
 ------------------------------------------------------------------------------------------------------------------------------------
   0.1374E-03 ( 13,  3, 55)  0.3260E-05 (  5,  2, 65)  0.5486E-06 (  6,  1, 56)  0.6846E-07 (  6,  1, 54)


                                          ================================================
                                                         FROM TIME =   95.000     TO    96.000    

=======
 = 0.6695E-02(WHEN MIN. R.F.=1)  AT K=   3, I=   2, J=  30
     1 CALLS TO GCG PACKAGE FOR TRANSPORT TIME STEP   2 IN FLOW TIME STEP  94 STRESS PERIOD   2
    12 TOTAL ITERATIONS
>>>>>>> Stashed changes
 
 SOLVING FOR HEAD 
 FLOW MODEL IS TRANSIENT
 FLOW MODEL CONTAINS CONSTANT-HEAD CELLS


 MAXIMUM STEPSIZE DURING WHICH ANY PARTICLE CANNOT MOVE MORE THAN ONE CELL
<<<<<<< Updated upstream
 = 0.1632    (WHEN MIN. R.F.=1)  AT K=   3, I=   2, J=  29

 MAXIMUM STEPSIZE WHICH MEETS STABILITY CRITERION OF THE ADVECTION TERM
 (FOR PURE FINITE-DIFFERENCE OPTION, MIXELM=0) 
 = 0.1132    (WHEN MIN. R.F.=1)  AT K=   3, I=   2, J=  28
=======
 = 0.1869    (WHEN MIN. R.F.=1)  AT K=   3, I=   2, J=  31

 MAXIMUM STEPSIZE WHICH MEETS STABILITY CRITERION OF THE ADVECTION TERM
 (FOR PURE FINITE-DIFFERENCE OPTION, MIXELM=0) 
 = 0.1248    (WHEN MIN. R.F.=1)  AT K=   3, I=   2, J=  30
>>>>>>> Stashed changes


 TOTAL NUMBER OF POINT SOURCES/SINKS PRESENT IN THE FLOW MODEL =   240

 MAXIMUM STEPSIZE WHICH MEETS STABILITY CRITERION OF THE SINK & SOURCE TERM
 = 0.1000E+31(WHEN MIN. R.F.=1)  AT K=   0, I=   0, J=   0

 MAXIMUM STEPSIZE WHICH MEETS STABILITY CRITERION OF THE DISPERSION TERM
<<<<<<< Updated upstream
 = 0.6193E-02(WHEN MIN. R.F.=1)  AT K=   3, I=   2, J=  31


     1 CALLS TO GCG PACKAGE FOR TRANSPORT TIME STEP   1 IN FLOW TIME STEP  95 STRESS PERIOD   2
    11 TOTAL ITERATIONS

 NO OUTPUT CONTROL FOR STRESS PERIOD    2   TIME STEP  95
=======
 = 0.6695E-02(WHEN MIN. R.F.=1)  AT K=   3, I=   2, J=  30
     1 CALLS TO GCG PACKAGE FOR TRANSPORT TIME STEP   3 IN FLOW TIME STEP  94 STRESS PERIOD   2
    12 TOTAL ITERATIONS
>>>>>>> Stashed changes
 
 SOLVING FOR HEAD 
 FLOW MODEL IS TRANSIENT
 FLOW MODEL CONTAINS CONSTANT-HEAD CELLS


 MAXIMUM STEPSIZE DURING WHICH ANY PARTICLE CANNOT MOVE MORE THAN ONE CELL
<<<<<<< Updated upstream
 = 0.1632    (WHEN MIN. R.F.=1)  AT K=   3, I=   2, J=  29

 MAXIMUM STEPSIZE WHICH MEETS STABILITY CRITERION OF THE ADVECTION TERM
 (FOR PURE FINITE-DIFFERENCE OPTION, MIXELM=0) 
 = 0.1132    (WHEN MIN. R.F.=1)  AT K=   3, I=   2, J=  28
=======
 = 0.1869    (WHEN MIN. R.F.=1)  AT K=   3, I=   2, J=  31

 MAXIMUM STEPSIZE WHICH MEETS STABILITY CRITERION OF THE ADVECTION TERM
 (FOR PURE FINITE-DIFFERENCE OPTION, MIXELM=0) 
 = 0.1248    (WHEN MIN. R.F.=1)  AT K=   3, I=   2, J=  30
>>>>>>> Stashed changes


 TOTAL NUMBER OF POINT SOURCES/SINKS PRESENT IN THE FLOW MODEL =   240

 MAXIMUM STEPSIZE WHICH MEETS STABILITY CRITERION OF THE SINK & SOURCE TERM
 = 0.1000E+31(WHEN MIN. R.F.=1)  AT K=   0, I=   0, J=   0

 MAXIMUM STEPSIZE WHICH MEETS STABILITY CRITERION OF THE DISPERSION TERM
<<<<<<< Updated upstream
 = 0.6193E-02(WHEN MIN. R.F.=1)  AT K=   3, I=   2, J=  31
     1 CALLS TO GCG PACKAGE FOR TRANSPORT TIME STEP   2 IN FLOW TIME STEP  95 STRESS PERIOD   2
    11 TOTAL ITERATIONS
=======
 = 0.6695E-02(WHEN MIN. R.F.=1)  AT K=   3, I=   2, J=  30
     1 CALLS TO GCG PACKAGE FOR TRANSPORT TIME STEP   4 IN FLOW TIME STEP  94 STRESS PERIOD   2
    12 TOTAL ITERATIONS
>>>>>>> Stashed changes
 
 SOLVING FOR HEAD 
 FLOW MODEL IS TRANSIENT
 FLOW MODEL CONTAINS CONSTANT-HEAD CELLS


 MAXIMUM STEPSIZE DURING WHICH ANY PARTICLE CANNOT MOVE MORE THAN ONE CELL
<<<<<<< Updated upstream
 = 0.1632    (WHEN MIN. R.F.=1)  AT K=   3, I=   2, J=  29

 MAXIMUM STEPSIZE WHICH MEETS STABILITY CRITERION OF THE ADVECTION TERM
 (FOR PURE FINITE-DIFFERENCE OPTION, MIXELM=0) 
 = 0.1132    (WHEN MIN. R.F.=1)  AT K=   3, I=   2, J=  28
=======
 = 0.1869    (WHEN MIN. R.F.=1)  AT K=   3, I=   2, J=  31

 MAXIMUM STEPSIZE WHICH MEETS STABILITY CRITERION OF THE ADVECTION TERM
 (FOR PURE FINITE-DIFFERENCE OPTION, MIXELM=0) 
 = 0.1248    (WHEN MIN. R.F.=1)  AT K=   3, I=   2, J=  30
>>>>>>> Stashed changes


 TOTAL NUMBER OF POINT SOURCES/SINKS PRESENT IN THE FLOW MODEL =   240

 MAXIMUM STEPSIZE WHICH MEETS STABILITY CRITERION OF THE SINK & SOURCE TERM
 = 0.1000E+31(WHEN MIN. R.F.=1)  AT K=   0, I=   0, J=   0

 MAXIMUM STEPSIZE WHICH MEETS STABILITY CRITERION OF THE DISPERSION TERM
<<<<<<< Updated upstream
 = 0.6193E-02(WHEN MIN. R.F.=1)  AT K=   3, I=   2, J=  31
     1 CALLS TO GCG PACKAGE FOR TRANSPORT TIME STEP   3 IN FLOW TIME STEP  95 STRESS PERIOD   2
    11 TOTAL ITERATIONS
=======
 = 0.6695E-02(WHEN MIN. R.F.=1)  AT K=   3, I=   2, J=  30
     1 CALLS TO GCG PACKAGE FOR TRANSPORT TIME STEP   5 IN FLOW TIME STEP  94 STRESS PERIOD   2
    12 TOTAL ITERATIONS
>>>>>>> Stashed changes
 
 SOLVING FOR HEAD 
 FLOW MODEL IS TRANSIENT
 FLOW MODEL CONTAINS CONSTANT-HEAD CELLS


 MAXIMUM STEPSIZE DURING WHICH ANY PARTICLE CANNOT MOVE MORE THAN ONE CELL
<<<<<<< Updated upstream
 = 0.1632    (WHEN MIN. R.F.=1)  AT K=   3, I=   2, J=  29

 MAXIMUM STEPSIZE WHICH MEETS STABILITY CRITERION OF THE ADVECTION TERM
 (FOR PURE FINITE-DIFFERENCE OPTION, MIXELM=0) 
 = 0.1132    (WHEN MIN. R.F.=1)  AT K=   3, I=   2, J=  28
=======
 = 0.1869    (WHEN MIN. R.F.=1)  AT K=   3, I=   2, J=  31

 MAXIMUM STEPSIZE WHICH MEETS STABILITY CRITERION OF THE ADVECTION TERM
 (FOR PURE FINITE-DIFFERENCE OPTION, MIXELM=0) 
 = 0.1248    (WHEN MIN. R.F.=1)  AT K=   3, I=   2, J=  30
>>>>>>> Stashed changes


 TOTAL NUMBER OF POINT SOURCES/SINKS PRESENT IN THE FLOW MODEL =   240

 MAXIMUM STEPSIZE WHICH MEETS STABILITY CRITERION OF THE SINK & SOURCE TERM
 = 0.1000E+31(WHEN MIN. R.F.=1)  AT K=   0, I=   0, J=   0

 MAXIMUM STEPSIZE WHICH MEETS STABILITY CRITERION OF THE DISPERSION TERM
<<<<<<< Updated upstream
 = 0.6193E-02(WHEN MIN. R.F.=1)  AT K=   3, I=   2, J=  31
     1 CALLS TO GCG PACKAGE FOR TRANSPORT TIME STEP   4 IN FLOW TIME STEP  95 STRESS PERIOD   2
    11 TOTAL ITERATIONS
=======
 = 0.6695E-02(WHEN MIN. R.F.=1)  AT K=   3, I=   2, J=  30
     1 CALLS TO GCG PACKAGE FOR TRANSPORT TIME STEP   6 IN FLOW TIME STEP  94 STRESS PERIOD   2
    12 TOTAL ITERATIONS
>>>>>>> Stashed changes
 
 SOLVING FOR HEAD 
 FLOW MODEL IS TRANSIENT
 FLOW MODEL CONTAINS CONSTANT-HEAD CELLS


 MAXIMUM STEPSIZE DURING WHICH ANY PARTICLE CANNOT MOVE MORE THAN ONE CELL
<<<<<<< Updated upstream
 = 0.1632    (WHEN MIN. R.F.=1)  AT K=   3, I=   2, J=  29

 MAXIMUM STEPSIZE WHICH MEETS STABILITY CRITERION OF THE ADVECTION TERM
 (FOR PURE FINITE-DIFFERENCE OPTION, MIXELM=0) 
 = 0.1132    (WHEN MIN. R.F.=1)  AT K=   3, I=   2, J=  28
=======
 = 0.1869    (WHEN MIN. R.F.=1)  AT K=   3, I=   2, J=  31

 MAXIMUM STEPSIZE WHICH MEETS STABILITY CRITERION OF THE ADVECTION TERM
 (FOR PURE FINITE-DIFFERENCE OPTION, MIXELM=0) 
 = 0.1248    (WHEN MIN. R.F.=1)  AT K=   3, I=   2, J=  30
>>>>>>> Stashed changes


 TOTAL NUMBER OF POINT SOURCES/SINKS PRESENT IN THE FLOW MODEL =   240

 MAXIMUM STEPSIZE WHICH MEETS STABILITY CRITERION OF THE SINK & SOURCE TERM
 = 0.1000E+31(WHEN MIN. R.F.=1)  AT K=   0, I=   0, J=   0

 MAXIMUM STEPSIZE WHICH MEETS STABILITY CRITERION OF THE DISPERSION TERM
<<<<<<< Updated upstream
 = 0.6193E-02(WHEN MIN. R.F.=1)  AT K=   3, I=   2, J=  31
     1 CALLS TO GCG PACKAGE FOR TRANSPORT TIME STEP   5 IN FLOW TIME STEP  95 STRESS PERIOD   2
    10 TOTAL ITERATIONS
=======
 = 0.6695E-02(WHEN MIN. R.F.=1)  AT K=   3, I=   2, J=  30
     1 CALLS TO GCG PACKAGE FOR TRANSPORT TIME STEP   7 IN FLOW TIME STEP  94 STRESS PERIOD   2
    12 TOTAL ITERATIONS
>>>>>>> Stashed changes
 
 SOLVING FOR HEAD 
 FLOW MODEL IS TRANSIENT
 FLOW MODEL CONTAINS CONSTANT-HEAD CELLS


 MAXIMUM STEPSIZE DURING WHICH ANY PARTICLE CANNOT MOVE MORE THAN ONE CELL
<<<<<<< Updated upstream
 = 0.1632    (WHEN MIN. R.F.=1)  AT K=   3, I=   2, J=  29

 MAXIMUM STEPSIZE WHICH MEETS STABILITY CRITERION OF THE ADVECTION TERM
 (FOR PURE FINITE-DIFFERENCE OPTION, MIXELM=0) 
 = 0.1132    (WHEN MIN. R.F.=1)  AT K=   3, I=   2, J=  28
=======
 = 0.1869    (WHEN MIN. R.F.=1)  AT K=   3, I=   2, J=  31

 MAXIMUM STEPSIZE WHICH MEETS STABILITY CRITERION OF THE ADVECTION TERM
 (FOR PURE FINITE-DIFFERENCE OPTION, MIXELM=0) 
 = 0.1248    (WHEN MIN. R.F.=1)  AT K=   3, I=   2, J=  30
>>>>>>> Stashed changes


 TOTAL NUMBER OF POINT SOURCES/SINKS PRESENT IN THE FLOW MODEL =   240

 MAXIMUM STEPSIZE WHICH MEETS STABILITY CRITERION OF THE SINK & SOURCE TERM
 = 0.1000E+31(WHEN MIN. R.F.=1)  AT K=   0, I=   0, J=   0

 MAXIMUM STEPSIZE WHICH MEETS STABILITY CRITERION OF THE DISPERSION TERM
<<<<<<< Updated upstream
 = 0.6193E-02(WHEN MIN. R.F.=1)  AT K=   3, I=   2, J=  31
     1 CALLS TO GCG PACKAGE FOR TRANSPORT TIME STEP   6 IN FLOW TIME STEP  95 STRESS PERIOD   2
    10 TOTAL ITERATIONS
=======
 = 0.6695E-02(WHEN MIN. R.F.=1)  AT K=   3, I=   2, J=  30
     1 CALLS TO GCG PACKAGE FOR TRANSPORT TIME STEP   8 IN FLOW TIME STEP  94 STRESS PERIOD   2
     4 TOTAL ITERATIONS
  MAXIMUM CONCENTRATION CHANGES FOR EACH ITERATION:
  MAX. CHANGE LAYER,ROW,COL MAX. CHANGE LAYER,ROW,COL MAX. CHANGE LAYER,ROW,COL MAX. CHANGE LAYER,ROW,COL MAX. CHANGE LAYER,ROW,COL
 ------------------------------------------------------------------------------------------------------------------------------------
   0.8369E-04 ( 14,  2, 57)  0.1960E-05 (  5,  2, 63)  0.3270E-06 (  4,  2, 56)  0.6674E-07 (  3,  2, 43)
 UBDSV1 SAVING "         STORAGE" ON UNIT  53 AT TIME STEP 94, STRESS PERIOD   2
 UBDSV2 SAVING "   CONSTANT HEAD" ON UNIT  53 AT TIME STEP 94, STRESS PERIOD   2
 UBDSV1 SAVING "FLOW RIGHT FACE " ON UNIT  53 AT TIME STEP 94, STRESS PERIOD   2
 UBDSV1 SAVING "FLOW FRONT FACE " ON UNIT  53 AT TIME STEP 94, STRESS PERIOD   2
 UBDSV1 SAVING "FLOW LOWER FACE " ON UNIT  53 AT TIME STEP 94, STRESS PERIOD   2
 UBDSV1 SAVING "            DCDT" ON UNIT  53 AT TIME STEP 94, STRESS PERIOD   2

 HEAD WILL BE SAVED ON UNIT   51 AT END OF TIME STEP  94, STRESS PERIOD    2


                                          ================================================
                                                         FROM TIME =   95.000     TO    96.000    

>>>>>>> Stashed changes
 
 SOLVING FOR HEAD 
 FLOW MODEL IS TRANSIENT
 FLOW MODEL CONTAINS CONSTANT-HEAD CELLS


 MAXIMUM STEPSIZE DURING WHICH ANY PARTICLE CANNOT MOVE MORE THAN ONE CELL
<<<<<<< Updated upstream
 = 0.1632    (WHEN MIN. R.F.=1)  AT K=   3, I=   2, J=  29

 MAXIMUM STEPSIZE WHICH MEETS STABILITY CRITERION OF THE ADVECTION TERM
 (FOR PURE FINITE-DIFFERENCE OPTION, MIXELM=0) 
 = 0.1132    (WHEN MIN. R.F.=1)  AT K=   3, I=   2, J=  28
=======
 = 0.1869    (WHEN MIN. R.F.=1)  AT K=   3, I=   2, J=  31

 MAXIMUM STEPSIZE WHICH MEETS STABILITY CRITERION OF THE ADVECTION TERM
 (FOR PURE FINITE-DIFFERENCE OPTION, MIXELM=0) 
 = 0.1248    (WHEN MIN. R.F.=1)  AT K=   3, I=   2, J=  30
>>>>>>> Stashed changes


 TOTAL NUMBER OF POINT SOURCES/SINKS PRESENT IN THE FLOW MODEL =   240

 MAXIMUM STEPSIZE WHICH MEETS STABILITY CRITERION OF THE SINK & SOURCE TERM
 = 0.1000E+31(WHEN MIN. R.F.=1)  AT K=   0, I=   0, J=   0

 MAXIMUM STEPSIZE WHICH MEETS STABILITY CRITERION OF THE DISPERSION TERM
<<<<<<< Updated upstream
 = 0.6193E-02(WHEN MIN. R.F.=1)  AT K=   3, I=   2, J=  31
     1 CALLS TO GCG PACKAGE FOR TRANSPORT TIME STEP   7 IN FLOW TIME STEP  95 STRESS PERIOD   2
    10 TOTAL ITERATIONS
=======
 = 0.6695E-02(WHEN MIN. R.F.=1)  AT K=   3, I=   2, J=  30


     1 CALLS TO GCG PACKAGE FOR TRANSPORT TIME STEP   1 IN FLOW TIME STEP  95 STRESS PERIOD   2
    12 TOTAL ITERATIONS

 OUTPUT CONTROL FOR STRESS PERIOD    2   TIME STEP  95
    SAVE HEAD FOR ALL LAYERS
    SAVE BUDGET
>>>>>>> Stashed changes
 
 SOLVING FOR HEAD 
 FLOW MODEL IS TRANSIENT
 FLOW MODEL CONTAINS CONSTANT-HEAD CELLS


 MAXIMUM STEPSIZE DURING WHICH ANY PARTICLE CANNOT MOVE MORE THAN ONE CELL
<<<<<<< Updated upstream
 = 0.1632    (WHEN MIN. R.F.=1)  AT K=   3, I=   2, J=  29

 MAXIMUM STEPSIZE WHICH MEETS STABILITY CRITERION OF THE ADVECTION TERM
 (FOR PURE FINITE-DIFFERENCE OPTION, MIXELM=0) 
 = 0.1132    (WHEN MIN. R.F.=1)  AT K=   3, I=   2, J=  28
=======
 = 0.1869    (WHEN MIN. R.F.=1)  AT K=   3, I=   2, J=  31

 MAXIMUM STEPSIZE WHICH MEETS STABILITY CRITERION OF THE ADVECTION TERM
 (FOR PURE FINITE-DIFFERENCE OPTION, MIXELM=0) 
 = 0.1248    (WHEN MIN. R.F.=1)  AT K=   3, I=   2, J=  30
>>>>>>> Stashed changes


 TOTAL NUMBER OF POINT SOURCES/SINKS PRESENT IN THE FLOW MODEL =   240

 MAXIMUM STEPSIZE WHICH MEETS STABILITY CRITERION OF THE SINK & SOURCE TERM
 = 0.1000E+31(WHEN MIN. R.F.=1)  AT K=   0, I=   0, J=   0

 MAXIMUM STEPSIZE WHICH MEETS STABILITY CRITERION OF THE DISPERSION TERM
<<<<<<< Updated upstream
 = 0.6193E-02(WHEN MIN. R.F.=1)  AT K=   3, I=   2, J=  31
     1 CALLS TO GCG PACKAGE FOR TRANSPORT TIME STEP   8 IN FLOW TIME STEP  95 STRESS PERIOD   2
    10 TOTAL ITERATIONS
=======
 = 0.6695E-02(WHEN MIN. R.F.=1)  AT K=   3, I=   2, J=  30
     1 CALLS TO GCG PACKAGE FOR TRANSPORT TIME STEP   2 IN FLOW TIME STEP  95 STRESS PERIOD   2
    12 TOTAL ITERATIONS
>>>>>>> Stashed changes
 
 SOLVING FOR HEAD 
 FLOW MODEL IS TRANSIENT
 FLOW MODEL CONTAINS CONSTANT-HEAD CELLS


 MAXIMUM STEPSIZE DURING WHICH ANY PARTICLE CANNOT MOVE MORE THAN ONE CELL
<<<<<<< Updated upstream
 = 0.1632    (WHEN MIN. R.F.=1)  AT K=   3, I=   2, J=  29

 MAXIMUM STEPSIZE WHICH MEETS STABILITY CRITERION OF THE ADVECTION TERM
 (FOR PURE FINITE-DIFFERENCE OPTION, MIXELM=0) 
 = 0.1132    (WHEN MIN. R.F.=1)  AT K=   3, I=   2, J=  28
=======
 = 0.1869    (WHEN MIN. R.F.=1)  AT K=   3, I=   2, J=  31

 MAXIMUM STEPSIZE WHICH MEETS STABILITY CRITERION OF THE ADVECTION TERM
 (FOR PURE FINITE-DIFFERENCE OPTION, MIXELM=0) 
 = 0.1248    (WHEN MIN. R.F.=1)  AT K=   3, I=   2, J=  30
>>>>>>> Stashed changes


 TOTAL NUMBER OF POINT SOURCES/SINKS PRESENT IN THE FLOW MODEL =   240

 MAXIMUM STEPSIZE WHICH MEETS STABILITY CRITERION OF THE SINK & SOURCE TERM
 = 0.1000E+31(WHEN MIN. R.F.=1)  AT K=   0, I=   0, J=   0

 MAXIMUM STEPSIZE WHICH MEETS STABILITY CRITERION OF THE DISPERSION TERM
<<<<<<< Updated upstream
 = 0.6193E-02(WHEN MIN. R.F.=1)  AT K=   3, I=   2, J=  31
     1 CALLS TO GCG PACKAGE FOR TRANSPORT TIME STEP   9 IN FLOW TIME STEP  95 STRESS PERIOD   2
     4 TOTAL ITERATIONS
  MAXIMUM CONCENTRATION CHANGES FOR EACH ITERATION:
  MAX. CHANGE LAYER,ROW,COL MAX. CHANGE LAYER,ROW,COL MAX. CHANGE LAYER,ROW,COL MAX. CHANGE LAYER,ROW,COL MAX. CHANGE LAYER,ROW,COL
 ------------------------------------------------------------------------------------------------------------------------------------
   0.1371E-03 ( 13,  3, 55)  0.3192E-05 (  5,  2, 65)  0.5340E-06 (  6,  1, 56)  0.6716E-07 (  6,  1, 54)


                                          ================================================
                                                         FROM TIME =   96.000     TO    97.000    

=======
 = 0.6695E-02(WHEN MIN. R.F.=1)  AT K=   3, I=   2, J=  30
     1 CALLS TO GCG PACKAGE FOR TRANSPORT TIME STEP   3 IN FLOW TIME STEP  95 STRESS PERIOD   2
    12 TOTAL ITERATIONS
>>>>>>> Stashed changes
 
 SOLVING FOR HEAD 
 FLOW MODEL IS TRANSIENT
 FLOW MODEL CONTAINS CONSTANT-HEAD CELLS


 MAXIMUM STEPSIZE DURING WHICH ANY PARTICLE CANNOT MOVE MORE THAN ONE CELL
<<<<<<< Updated upstream
 = 0.1632    (WHEN MIN. R.F.=1)  AT K=   3, I=   2, J=  29

 MAXIMUM STEPSIZE WHICH MEETS STABILITY CRITERION OF THE ADVECTION TERM
 (FOR PURE FINITE-DIFFERENCE OPTION, MIXELM=0) 
 = 0.1132    (WHEN MIN. R.F.=1)  AT K=   3, I=   2, J=  28
=======
 = 0.1869    (WHEN MIN. R.F.=1)  AT K=   3, I=   2, J=  31

 MAXIMUM STEPSIZE WHICH MEETS STABILITY CRITERION OF THE ADVECTION TERM
 (FOR PURE FINITE-DIFFERENCE OPTION, MIXELM=0) 
 = 0.1248    (WHEN MIN. R.F.=1)  AT K=   3, I=   2, J=  30
>>>>>>> Stashed changes


 TOTAL NUMBER OF POINT SOURCES/SINKS PRESENT IN THE FLOW MODEL =   240

 MAXIMUM STEPSIZE WHICH MEETS STABILITY CRITERION OF THE SINK & SOURCE TERM
 = 0.1000E+31(WHEN MIN. R.F.=1)  AT K=   0, I=   0, J=   0

 MAXIMUM STEPSIZE WHICH MEETS STABILITY CRITERION OF THE DISPERSION TERM
<<<<<<< Updated upstream
 = 0.6193E-02(WHEN MIN. R.F.=1)  AT K=   3, I=   2, J=  31


     1 CALLS TO GCG PACKAGE FOR TRANSPORT TIME STEP   1 IN FLOW TIME STEP  96 STRESS PERIOD   2
    11 TOTAL ITERATIONS

 NO OUTPUT CONTROL FOR STRESS PERIOD    2   TIME STEP  96
=======
 = 0.6695E-02(WHEN MIN. R.F.=1)  AT K=   3, I=   2, J=  30
     1 CALLS TO GCG PACKAGE FOR TRANSPORT TIME STEP   4 IN FLOW TIME STEP  95 STRESS PERIOD   2
    12 TOTAL ITERATIONS
>>>>>>> Stashed changes
 
 SOLVING FOR HEAD 
 FLOW MODEL IS TRANSIENT
 FLOW MODEL CONTAINS CONSTANT-HEAD CELLS


 MAXIMUM STEPSIZE DURING WHICH ANY PARTICLE CANNOT MOVE MORE THAN ONE CELL
<<<<<<< Updated upstream
 = 0.1632    (WHEN MIN. R.F.=1)  AT K=   3, I=   2, J=  29

 MAXIMUM STEPSIZE WHICH MEETS STABILITY CRITERION OF THE ADVECTION TERM
 (FOR PURE FINITE-DIFFERENCE OPTION, MIXELM=0) 
 = 0.1132    (WHEN MIN. R.F.=1)  AT K=   3, I=   2, J=  28
=======
 = 0.1869    (WHEN MIN. R.F.=1)  AT K=   3, I=   2, J=  31

 MAXIMUM STEPSIZE WHICH MEETS STABILITY CRITERION OF THE ADVECTION TERM
 (FOR PURE FINITE-DIFFERENCE OPTION, MIXELM=0) 
 = 0.1248    (WHEN MIN. R.F.=1)  AT K=   3, I=   2, J=  30
>>>>>>> Stashed changes


 TOTAL NUMBER OF POINT SOURCES/SINKS PRESENT IN THE FLOW MODEL =   240

 MAXIMUM STEPSIZE WHICH MEETS STABILITY CRITERION OF THE SINK & SOURCE TERM
 = 0.1000E+31(WHEN MIN. R.F.=1)  AT K=   0, I=   0, J=   0

 MAXIMUM STEPSIZE WHICH MEETS STABILITY CRITERION OF THE DISPERSION TERM
<<<<<<< Updated upstream
 = 0.6193E-02(WHEN MIN. R.F.=1)  AT K=   3, I=   2, J=  31
     1 CALLS TO GCG PACKAGE FOR TRANSPORT TIME STEP   2 IN FLOW TIME STEP  96 STRESS PERIOD   2
    11 TOTAL ITERATIONS
=======
 = 0.6695E-02(WHEN MIN. R.F.=1)  AT K=   3, I=   2, J=  30
     1 CALLS TO GCG PACKAGE FOR TRANSPORT TIME STEP   5 IN FLOW TIME STEP  95 STRESS PERIOD   2
    12 TOTAL ITERATIONS
>>>>>>> Stashed changes
 
 SOLVING FOR HEAD 
 FLOW MODEL IS TRANSIENT
 FLOW MODEL CONTAINS CONSTANT-HEAD CELLS


 MAXIMUM STEPSIZE DURING WHICH ANY PARTICLE CANNOT MOVE MORE THAN ONE CELL
<<<<<<< Updated upstream
 = 0.1632    (WHEN MIN. R.F.=1)  AT K=   3, I=   2, J=  29

 MAXIMUM STEPSIZE WHICH MEETS STABILITY CRITERION OF THE ADVECTION TERM
 (FOR PURE FINITE-DIFFERENCE OPTION, MIXELM=0) 
 = 0.1132    (WHEN MIN. R.F.=1)  AT K=   3, I=   2, J=  28
=======
 = 0.1869    (WHEN MIN. R.F.=1)  AT K=   3, I=   2, J=  31

 MAXIMUM STEPSIZE WHICH MEETS STABILITY CRITERION OF THE ADVECTION TERM
 (FOR PURE FINITE-DIFFERENCE OPTION, MIXELM=0) 
 = 0.1248    (WHEN MIN. R.F.=1)  AT K=   3, I=   2, J=  30
>>>>>>> Stashed changes


 TOTAL NUMBER OF POINT SOURCES/SINKS PRESENT IN THE FLOW MODEL =   240

 MAXIMUM STEPSIZE WHICH MEETS STABILITY CRITERION OF THE SINK & SOURCE TERM
 = 0.1000E+31(WHEN MIN. R.F.=1)  AT K=   0, I=   0, J=   0

 MAXIMUM STEPSIZE WHICH MEETS STABILITY CRITERION OF THE DISPERSION TERM
<<<<<<< Updated upstream
 = 0.6193E-02(WHEN MIN. R.F.=1)  AT K=   3, I=   2, J=  31
     1 CALLS TO GCG PACKAGE FOR TRANSPORT TIME STEP   3 IN FLOW TIME STEP  96 STRESS PERIOD   2
    10 TOTAL ITERATIONS
=======
 = 0.6695E-02(WHEN MIN. R.F.=1)  AT K=   3, I=   2, J=  30
     1 CALLS TO GCG PACKAGE FOR TRANSPORT TIME STEP   6 IN FLOW TIME STEP  95 STRESS PERIOD   2
    12 TOTAL ITERATIONS
>>>>>>> Stashed changes
 
 SOLVING FOR HEAD 
 FLOW MODEL IS TRANSIENT
 FLOW MODEL CONTAINS CONSTANT-HEAD CELLS


 MAXIMUM STEPSIZE DURING WHICH ANY PARTICLE CANNOT MOVE MORE THAN ONE CELL
<<<<<<< Updated upstream
 = 0.1632    (WHEN MIN. R.F.=1)  AT K=   3, I=   2, J=  29

 MAXIMUM STEPSIZE WHICH MEETS STABILITY CRITERION OF THE ADVECTION TERM
 (FOR PURE FINITE-DIFFERENCE OPTION, MIXELM=0) 
 = 0.1132    (WHEN MIN. R.F.=1)  AT K=   3, I=   2, J=  28
=======
 = 0.1869    (WHEN MIN. R.F.=1)  AT K=   3, I=   2, J=  31

 MAXIMUM STEPSIZE WHICH MEETS STABILITY CRITERION OF THE ADVECTION TERM
 (FOR PURE FINITE-DIFFERENCE OPTION, MIXELM=0) 
 = 0.1248    (WHEN MIN. R.F.=1)  AT K=   3, I=   2, J=  30
>>>>>>> Stashed changes


 TOTAL NUMBER OF POINT SOURCES/SINKS PRESENT IN THE FLOW MODEL =   240

 MAXIMUM STEPSIZE WHICH MEETS STABILITY CRITERION OF THE SINK & SOURCE TERM
 = 0.1000E+31(WHEN MIN. R.F.=1)  AT K=   0, I=   0, J=   0

 MAXIMUM STEPSIZE WHICH MEETS STABILITY CRITERION OF THE DISPERSION TERM
<<<<<<< Updated upstream
 = 0.6193E-02(WHEN MIN. R.F.=1)  AT K=   3, I=   2, J=  31
     1 CALLS TO GCG PACKAGE FOR TRANSPORT TIME STEP   4 IN FLOW TIME STEP  96 STRESS PERIOD   2
    10 TOTAL ITERATIONS
=======
 = 0.6695E-02(WHEN MIN. R.F.=1)  AT K=   3, I=   2, J=  30
     1 CALLS TO GCG PACKAGE FOR TRANSPORT TIME STEP   7 IN FLOW TIME STEP  95 STRESS PERIOD   2
    12 TOTAL ITERATIONS
>>>>>>> Stashed changes
 
 SOLVING FOR HEAD 
 FLOW MODEL IS TRANSIENT
 FLOW MODEL CONTAINS CONSTANT-HEAD CELLS


 MAXIMUM STEPSIZE DURING WHICH ANY PARTICLE CANNOT MOVE MORE THAN ONE CELL
<<<<<<< Updated upstream
 = 0.1632    (WHEN MIN. R.F.=1)  AT K=   3, I=   2, J=  29

 MAXIMUM STEPSIZE WHICH MEETS STABILITY CRITERION OF THE ADVECTION TERM
 (FOR PURE FINITE-DIFFERENCE OPTION, MIXELM=0) 
 = 0.1132    (WHEN MIN. R.F.=1)  AT K=   3, I=   2, J=  28
=======
 = 0.1869    (WHEN MIN. R.F.=1)  AT K=   3, I=   2, J=  31

 MAXIMUM STEPSIZE WHICH MEETS STABILITY CRITERION OF THE ADVECTION TERM
 (FOR PURE FINITE-DIFFERENCE OPTION, MIXELM=0) 
 = 0.1248    (WHEN MIN. R.F.=1)  AT K=   3, I=   2, J=  30
>>>>>>> Stashed changes


 TOTAL NUMBER OF POINT SOURCES/SINKS PRESENT IN THE FLOW MODEL =   240

 MAXIMUM STEPSIZE WHICH MEETS STABILITY CRITERION OF THE SINK & SOURCE TERM
 = 0.1000E+31(WHEN MIN. R.F.=1)  AT K=   0, I=   0, J=   0

 MAXIMUM STEPSIZE WHICH MEETS STABILITY CRITERION OF THE DISPERSION TERM
<<<<<<< Updated upstream
 = 0.6193E-02(WHEN MIN. R.F.=1)  AT K=   3, I=   2, J=  31
     1 CALLS TO GCG PACKAGE FOR TRANSPORT TIME STEP   5 IN FLOW TIME STEP  96 STRESS PERIOD   2
    10 TOTAL ITERATIONS
=======
 = 0.6695E-02(WHEN MIN. R.F.=1)  AT K=   3, I=   2, J=  30
     1 CALLS TO GCG PACKAGE FOR TRANSPORT TIME STEP   8 IN FLOW TIME STEP  95 STRESS PERIOD   2
     4 TOTAL ITERATIONS
  MAXIMUM CONCENTRATION CHANGES FOR EACH ITERATION:
  MAX. CHANGE LAYER,ROW,COL MAX. CHANGE LAYER,ROW,COL MAX. CHANGE LAYER,ROW,COL MAX. CHANGE LAYER,ROW,COL MAX. CHANGE LAYER,ROW,COL
 ------------------------------------------------------------------------------------------------------------------------------------
   0.8269E-04 ( 14,  2, 57)  0.1918E-05 (  5,  2, 64)  0.3188E-06 (  4,  2, 56)  0.6540E-07 (  3,  2, 44)
 UBDSV1 SAVING "         STORAGE" ON UNIT  53 AT TIME STEP 95, STRESS PERIOD   2
 UBDSV2 SAVING "   CONSTANT HEAD" ON UNIT  53 AT TIME STEP 95, STRESS PERIOD   2
 UBDSV1 SAVING "FLOW RIGHT FACE " ON UNIT  53 AT TIME STEP 95, STRESS PERIOD   2
 UBDSV1 SAVING "FLOW FRONT FACE " ON UNIT  53 AT TIME STEP 95, STRESS PERIOD   2
 UBDSV1 SAVING "FLOW LOWER FACE " ON UNIT  53 AT TIME STEP 95, STRESS PERIOD   2
 UBDSV1 SAVING "            DCDT" ON UNIT  53 AT TIME STEP 95, STRESS PERIOD   2

 HEAD WILL BE SAVED ON UNIT   51 AT END OF TIME STEP  95, STRESS PERIOD    2


                                          ================================================
                                                         FROM TIME =   96.000     TO    97.000    

>>>>>>> Stashed changes
 
 SOLVING FOR HEAD 
 FLOW MODEL IS TRANSIENT
 FLOW MODEL CONTAINS CONSTANT-HEAD CELLS


 MAXIMUM STEPSIZE DURING WHICH ANY PARTICLE CANNOT MOVE MORE THAN ONE CELL
<<<<<<< Updated upstream
 = 0.1632    (WHEN MIN. R.F.=1)  AT K=   3, I=   2, J=  29

 MAXIMUM STEPSIZE WHICH MEETS STABILITY CRITERION OF THE ADVECTION TERM
 (FOR PURE FINITE-DIFFERENCE OPTION, MIXELM=0) 
 = 0.1132    (WHEN MIN. R.F.=1)  AT K=   3, I=   2, J=  28
=======
 = 0.1869    (WHEN MIN. R.F.=1)  AT K=   3, I=   2, J=  31

 MAXIMUM STEPSIZE WHICH MEETS STABILITY CRITERION OF THE ADVECTION TERM
 (FOR PURE FINITE-DIFFERENCE OPTION, MIXELM=0) 
 = 0.1248    (WHEN MIN. R.F.=1)  AT K=   3, I=   2, J=  30
>>>>>>> Stashed changes


 TOTAL NUMBER OF POINT SOURCES/SINKS PRESENT IN THE FLOW MODEL =   240

 MAXIMUM STEPSIZE WHICH MEETS STABILITY CRITERION OF THE SINK & SOURCE TERM
 = 0.1000E+31(WHEN MIN. R.F.=1)  AT K=   0, I=   0, J=   0

 MAXIMUM STEPSIZE WHICH MEETS STABILITY CRITERION OF THE DISPERSION TERM
<<<<<<< Updated upstream
 = 0.6193E-02(WHEN MIN. R.F.=1)  AT K=   3, I=   2, J=  31
     1 CALLS TO GCG PACKAGE FOR TRANSPORT TIME STEP   6 IN FLOW TIME STEP  96 STRESS PERIOD   2
    10 TOTAL ITERATIONS
=======
 = 0.6695E-02(WHEN MIN. R.F.=1)  AT K=   3, I=   2, J=  30


     1 CALLS TO GCG PACKAGE FOR TRANSPORT TIME STEP   1 IN FLOW TIME STEP  96 STRESS PERIOD   2
    12 TOTAL ITERATIONS

 OUTPUT CONTROL FOR STRESS PERIOD    2   TIME STEP  96
    SAVE HEAD FOR ALL LAYERS
    SAVE BUDGET
>>>>>>> Stashed changes
 
 SOLVING FOR HEAD 
 FLOW MODEL IS TRANSIENT
 FLOW MODEL CONTAINS CONSTANT-HEAD CELLS


 MAXIMUM STEPSIZE DURING WHICH ANY PARTICLE CANNOT MOVE MORE THAN ONE CELL
<<<<<<< Updated upstream
 = 0.1632    (WHEN MIN. R.F.=1)  AT K=   3, I=   2, J=  29

 MAXIMUM STEPSIZE WHICH MEETS STABILITY CRITERION OF THE ADVECTION TERM
 (FOR PURE FINITE-DIFFERENCE OPTION, MIXELM=0) 
 = 0.1132    (WHEN MIN. R.F.=1)  AT K=   3, I=   2, J=  28
=======
 = 0.1869    (WHEN MIN. R.F.=1)  AT K=   3, I=   2, J=  31

 MAXIMUM STEPSIZE WHICH MEETS STABILITY CRITERION OF THE ADVECTION TERM
 (FOR PURE FINITE-DIFFERENCE OPTION, MIXELM=0) 
 = 0.1248    (WHEN MIN. R.F.=1)  AT K=   3, I=   2, J=  30
>>>>>>> Stashed changes


 TOTAL NUMBER OF POINT SOURCES/SINKS PRESENT IN THE FLOW MODEL =   240

 MAXIMUM STEPSIZE WHICH MEETS STABILITY CRITERION OF THE SINK & SOURCE TERM
 = 0.1000E+31(WHEN MIN. R.F.=1)  AT K=   0, I=   0, J=   0

 MAXIMUM STEPSIZE WHICH MEETS STABILITY CRITERION OF THE DISPERSION TERM
<<<<<<< Updated upstream
 = 0.6193E-02(WHEN MIN. R.F.=1)  AT K=   3, I=   2, J=  31
     1 CALLS TO GCG PACKAGE FOR TRANSPORT TIME STEP   7 IN FLOW TIME STEP  96 STRESS PERIOD   2
    10 TOTAL ITERATIONS
=======
 = 0.6695E-02(WHEN MIN. R.F.=1)  AT K=   3, I=   2, J=  30
     1 CALLS TO GCG PACKAGE FOR TRANSPORT TIME STEP   2 IN FLOW TIME STEP  96 STRESS PERIOD   2
    12 TOTAL ITERATIONS
>>>>>>> Stashed changes
 
 SOLVING FOR HEAD 
 FLOW MODEL IS TRANSIENT
 FLOW MODEL CONTAINS CONSTANT-HEAD CELLS


 MAXIMUM STEPSIZE DURING WHICH ANY PARTICLE CANNOT MOVE MORE THAN ONE CELL
<<<<<<< Updated upstream
 = 0.1632    (WHEN MIN. R.F.=1)  AT K=   3, I=   2, J=  29

 MAXIMUM STEPSIZE WHICH MEETS STABILITY CRITERION OF THE ADVECTION TERM
 (FOR PURE FINITE-DIFFERENCE OPTION, MIXELM=0) 
 = 0.1132    (WHEN MIN. R.F.=1)  AT K=   3, I=   2, J=  28
=======
 = 0.1869    (WHEN MIN. R.F.=1)  AT K=   3, I=   2, J=  31

 MAXIMUM STEPSIZE WHICH MEETS STABILITY CRITERION OF THE ADVECTION TERM
 (FOR PURE FINITE-DIFFERENCE OPTION, MIXELM=0) 
 = 0.1248    (WHEN MIN. R.F.=1)  AT K=   3, I=   2, J=  30
>>>>>>> Stashed changes


 TOTAL NUMBER OF POINT SOURCES/SINKS PRESENT IN THE FLOW MODEL =   240

 MAXIMUM STEPSIZE WHICH MEETS STABILITY CRITERION OF THE SINK & SOURCE TERM
 = 0.1000E+31(WHEN MIN. R.F.=1)  AT K=   0, I=   0, J=   0

 MAXIMUM STEPSIZE WHICH MEETS STABILITY CRITERION OF THE DISPERSION TERM
<<<<<<< Updated upstream
 = 0.6193E-02(WHEN MIN. R.F.=1)  AT K=   3, I=   2, J=  31
     1 CALLS TO GCG PACKAGE FOR TRANSPORT TIME STEP   8 IN FLOW TIME STEP  96 STRESS PERIOD   2
    10 TOTAL ITERATIONS
=======
 = 0.6695E-02(WHEN MIN. R.F.=1)  AT K=   3, I=   2, J=  30
     1 CALLS TO GCG PACKAGE FOR TRANSPORT TIME STEP   3 IN FLOW TIME STEP  96 STRESS PERIOD   2
    12 TOTAL ITERATIONS
>>>>>>> Stashed changes
 
 SOLVING FOR HEAD 
 FLOW MODEL IS TRANSIENT
 FLOW MODEL CONTAINS CONSTANT-HEAD CELLS


 MAXIMUM STEPSIZE DURING WHICH ANY PARTICLE CANNOT MOVE MORE THAN ONE CELL
<<<<<<< Updated upstream
 = 0.1632    (WHEN MIN. R.F.=1)  AT K=   3, I=   2, J=  29

 MAXIMUM STEPSIZE WHICH MEETS STABILITY CRITERION OF THE ADVECTION TERM
 (FOR PURE FINITE-DIFFERENCE OPTION, MIXELM=0) 
 = 0.1132    (WHEN MIN. R.F.=1)  AT K=   3, I=   2, J=  28
=======
 = 0.1869    (WHEN MIN. R.F.=1)  AT K=   3, I=   2, J=  31

 MAXIMUM STEPSIZE WHICH MEETS STABILITY CRITERION OF THE ADVECTION TERM
 (FOR PURE FINITE-DIFFERENCE OPTION, MIXELM=0) 
 = 0.1248    (WHEN MIN. R.F.=1)  AT K=   3, I=   2, J=  30
>>>>>>> Stashed changes


 TOTAL NUMBER OF POINT SOURCES/SINKS PRESENT IN THE FLOW MODEL =   240

 MAXIMUM STEPSIZE WHICH MEETS STABILITY CRITERION OF THE SINK & SOURCE TERM
 = 0.1000E+31(WHEN MIN. R.F.=1)  AT K=   0, I=   0, J=   0

 MAXIMUM STEPSIZE WHICH MEETS STABILITY CRITERION OF THE DISPERSION TERM
<<<<<<< Updated upstream
 = 0.6193E-02(WHEN MIN. R.F.=1)  AT K=   3, I=   2, J=  31
     1 CALLS TO GCG PACKAGE FOR TRANSPORT TIME STEP   9 IN FLOW TIME STEP  96 STRESS PERIOD   2
     4 TOTAL ITERATIONS
  MAXIMUM CONCENTRATION CHANGES FOR EACH ITERATION:
  MAX. CHANGE LAYER,ROW,COL MAX. CHANGE LAYER,ROW,COL MAX. CHANGE LAYER,ROW,COL MAX. CHANGE LAYER,ROW,COL MAX. CHANGE LAYER,ROW,COL
 ------------------------------------------------------------------------------------------------------------------------------------
   0.1366E-03 ( 13,  3, 55)  0.3127E-05 (  5,  2, 65)  0.5198E-06 (  6,  1, 56)  0.6572E-07 (  6,  1, 54)


                                          ================================================
                                                         FROM TIME =   97.000     TO    98.000    

=======
 = 0.6695E-02(WHEN MIN. R.F.=1)  AT K=   3, I=   2, J=  30
     1 CALLS TO GCG PACKAGE FOR TRANSPORT TIME STEP   4 IN FLOW TIME STEP  96 STRESS PERIOD   2
    12 TOTAL ITERATIONS
>>>>>>> Stashed changes
 
 SOLVING FOR HEAD 
 FLOW MODEL IS TRANSIENT
 FLOW MODEL CONTAINS CONSTANT-HEAD CELLS


 MAXIMUM STEPSIZE DURING WHICH ANY PARTICLE CANNOT MOVE MORE THAN ONE CELL
<<<<<<< Updated upstream
 = 0.1632    (WHEN MIN. R.F.=1)  AT K=   3, I=   2, J=  29

 MAXIMUM STEPSIZE WHICH MEETS STABILITY CRITERION OF THE ADVECTION TERM
 (FOR PURE FINITE-DIFFERENCE OPTION, MIXELM=0) 
 = 0.1132    (WHEN MIN. R.F.=1)  AT K=   3, I=   2, J=  28
=======
 = 0.1869    (WHEN MIN. R.F.=1)  AT K=   3, I=   2, J=  31

 MAXIMUM STEPSIZE WHICH MEETS STABILITY CRITERION OF THE ADVECTION TERM
 (FOR PURE FINITE-DIFFERENCE OPTION, MIXELM=0) 
 = 0.1248    (WHEN MIN. R.F.=1)  AT K=   3, I=   2, J=  30
>>>>>>> Stashed changes


 TOTAL NUMBER OF POINT SOURCES/SINKS PRESENT IN THE FLOW MODEL =   240

 MAXIMUM STEPSIZE WHICH MEETS STABILITY CRITERION OF THE SINK & SOURCE TERM
 = 0.1000E+31(WHEN MIN. R.F.=1)  AT K=   0, I=   0, J=   0

 MAXIMUM STEPSIZE WHICH MEETS STABILITY CRITERION OF THE DISPERSION TERM
<<<<<<< Updated upstream
 = 0.6193E-02(WHEN MIN. R.F.=1)  AT K=   3, I=   2, J=  31


     1 CALLS TO GCG PACKAGE FOR TRANSPORT TIME STEP   1 IN FLOW TIME STEP  97 STRESS PERIOD   2
    10 TOTAL ITERATIONS

 NO OUTPUT CONTROL FOR STRESS PERIOD    2   TIME STEP  97
=======
 = 0.6695E-02(WHEN MIN. R.F.=1)  AT K=   3, I=   2, J=  30
     1 CALLS TO GCG PACKAGE FOR TRANSPORT TIME STEP   5 IN FLOW TIME STEP  96 STRESS PERIOD   2
    12 TOTAL ITERATIONS
>>>>>>> Stashed changes
 
 SOLVING FOR HEAD 
 FLOW MODEL IS TRANSIENT
 FLOW MODEL CONTAINS CONSTANT-HEAD CELLS


 MAXIMUM STEPSIZE DURING WHICH ANY PARTICLE CANNOT MOVE MORE THAN ONE CELL
<<<<<<< Updated upstream
 = 0.1632    (WHEN MIN. R.F.=1)  AT K=   3, I=   2, J=  29

 MAXIMUM STEPSIZE WHICH MEETS STABILITY CRITERION OF THE ADVECTION TERM
 (FOR PURE FINITE-DIFFERENCE OPTION, MIXELM=0) 
 = 0.1132    (WHEN MIN. R.F.=1)  AT K=   3, I=   2, J=  28
=======
 = 0.1869    (WHEN MIN. R.F.=1)  AT K=   3, I=   2, J=  31

 MAXIMUM STEPSIZE WHICH MEETS STABILITY CRITERION OF THE ADVECTION TERM
 (FOR PURE FINITE-DIFFERENCE OPTION, MIXELM=0) 
 = 0.1248    (WHEN MIN. R.F.=1)  AT K=   3, I=   2, J=  30
>>>>>>> Stashed changes


 TOTAL NUMBER OF POINT SOURCES/SINKS PRESENT IN THE FLOW MODEL =   240

 MAXIMUM STEPSIZE WHICH MEETS STABILITY CRITERION OF THE SINK & SOURCE TERM
 = 0.1000E+31(WHEN MIN. R.F.=1)  AT K=   0, I=   0, J=   0

 MAXIMUM STEPSIZE WHICH MEETS STABILITY CRITERION OF THE DISPERSION TERM
<<<<<<< Updated upstream
 = 0.6193E-02(WHEN MIN. R.F.=1)  AT K=   3, I=   2, J=  31
     1 CALLS TO GCG PACKAGE FOR TRANSPORT TIME STEP   2 IN FLOW TIME STEP  97 STRESS PERIOD   2
    10 TOTAL ITERATIONS
=======
 = 0.6695E-02(WHEN MIN. R.F.=1)  AT K=   3, I=   2, J=  30
     1 CALLS TO GCG PACKAGE FOR TRANSPORT TIME STEP   6 IN FLOW TIME STEP  96 STRESS PERIOD   2
    12 TOTAL ITERATIONS
>>>>>>> Stashed changes
 
 SOLVING FOR HEAD 
 FLOW MODEL IS TRANSIENT
 FLOW MODEL CONTAINS CONSTANT-HEAD CELLS


 MAXIMUM STEPSIZE DURING WHICH ANY PARTICLE CANNOT MOVE MORE THAN ONE CELL
<<<<<<< Updated upstream
 = 0.1632    (WHEN MIN. R.F.=1)  AT K=   3, I=   2, J=  29

 MAXIMUM STEPSIZE WHICH MEETS STABILITY CRITERION OF THE ADVECTION TERM
 (FOR PURE FINITE-DIFFERENCE OPTION, MIXELM=0) 
 = 0.1132    (WHEN MIN. R.F.=1)  AT K=   3, I=   2, J=  28
=======
 = 0.1869    (WHEN MIN. R.F.=1)  AT K=   3, I=   2, J=  31

 MAXIMUM STEPSIZE WHICH MEETS STABILITY CRITERION OF THE ADVECTION TERM
 (FOR PURE FINITE-DIFFERENCE OPTION, MIXELM=0) 
 = 0.1248    (WHEN MIN. R.F.=1)  AT K=   3, I=   2, J=  30
>>>>>>> Stashed changes


 TOTAL NUMBER OF POINT SOURCES/SINKS PRESENT IN THE FLOW MODEL =   240

 MAXIMUM STEPSIZE WHICH MEETS STABILITY CRITERION OF THE SINK & SOURCE TERM
 = 0.1000E+31(WHEN MIN. R.F.=1)  AT K=   0, I=   0, J=   0

 MAXIMUM STEPSIZE WHICH MEETS STABILITY CRITERION OF THE DISPERSION TERM
<<<<<<< Updated upstream
 = 0.6193E-02(WHEN MIN. R.F.=1)  AT K=   3, I=   2, J=  31
     1 CALLS TO GCG PACKAGE FOR TRANSPORT TIME STEP   3 IN FLOW TIME STEP  97 STRESS PERIOD   2
    10 TOTAL ITERATIONS
=======
 = 0.6695E-02(WHEN MIN. R.F.=1)  AT K=   3, I=   2, J=  30
     1 CALLS TO GCG PACKAGE FOR TRANSPORT TIME STEP   7 IN FLOW TIME STEP  96 STRESS PERIOD   2
    12 TOTAL ITERATIONS
>>>>>>> Stashed changes
 
 SOLVING FOR HEAD 
 FLOW MODEL IS TRANSIENT
 FLOW MODEL CONTAINS CONSTANT-HEAD CELLS


 MAXIMUM STEPSIZE DURING WHICH ANY PARTICLE CANNOT MOVE MORE THAN ONE CELL
<<<<<<< Updated upstream
 = 0.1632    (WHEN MIN. R.F.=1)  AT K=   3, I=   2, J=  29

 MAXIMUM STEPSIZE WHICH MEETS STABILITY CRITERION OF THE ADVECTION TERM
 (FOR PURE FINITE-DIFFERENCE OPTION, MIXELM=0) 
 = 0.1132    (WHEN MIN. R.F.=1)  AT K=   3, I=   2, J=  28
=======
 = 0.1869    (WHEN MIN. R.F.=1)  AT K=   3, I=   2, J=  31

 MAXIMUM STEPSIZE WHICH MEETS STABILITY CRITERION OF THE ADVECTION TERM
 (FOR PURE FINITE-DIFFERENCE OPTION, MIXELM=0) 
 = 0.1248    (WHEN MIN. R.F.=1)  AT K=   3, I=   2, J=  30
>>>>>>> Stashed changes


 TOTAL NUMBER OF POINT SOURCES/SINKS PRESENT IN THE FLOW MODEL =   240

 MAXIMUM STEPSIZE WHICH MEETS STABILITY CRITERION OF THE SINK & SOURCE TERM
 = 0.1000E+31(WHEN MIN. R.F.=1)  AT K=   0, I=   0, J=   0

 MAXIMUM STEPSIZE WHICH MEETS STABILITY CRITERION OF THE DISPERSION TERM
<<<<<<< Updated upstream
 = 0.6193E-02(WHEN MIN. R.F.=1)  AT K=   3, I=   2, J=  31
     1 CALLS TO GCG PACKAGE FOR TRANSPORT TIME STEP   4 IN FLOW TIME STEP  97 STRESS PERIOD   2
    10 TOTAL ITERATIONS
=======
 = 0.6695E-02(WHEN MIN. R.F.=1)  AT K=   3, I=   2, J=  30
     1 CALLS TO GCG PACKAGE FOR TRANSPORT TIME STEP   8 IN FLOW TIME STEP  96 STRESS PERIOD   2
     4 TOTAL ITERATIONS
  MAXIMUM CONCENTRATION CHANGES FOR EACH ITERATION:
  MAX. CHANGE LAYER,ROW,COL MAX. CHANGE LAYER,ROW,COL MAX. CHANGE LAYER,ROW,COL MAX. CHANGE LAYER,ROW,COL MAX. CHANGE LAYER,ROW,COL
 ------------------------------------------------------------------------------------------------------------------------------------
   0.8169E-04 ( 14,  2, 57)  0.1879E-05 (  5,  2, 64)  0.3108E-06 (  4,  2, 56)  0.5942E-07 (  3,  2, 43)
 UBDSV1 SAVING "         STORAGE" ON UNIT  53 AT TIME STEP 96, STRESS PERIOD   2
 UBDSV2 SAVING "   CONSTANT HEAD" ON UNIT  53 AT TIME STEP 96, STRESS PERIOD   2
 UBDSV1 SAVING "FLOW RIGHT FACE " ON UNIT  53 AT TIME STEP 96, STRESS PERIOD   2
 UBDSV1 SAVING "FLOW FRONT FACE " ON UNIT  53 AT TIME STEP 96, STRESS PERIOD   2
 UBDSV1 SAVING "FLOW LOWER FACE " ON UNIT  53 AT TIME STEP 96, STRESS PERIOD   2
 UBDSV1 SAVING "            DCDT" ON UNIT  53 AT TIME STEP 96, STRESS PERIOD   2

 HEAD WILL BE SAVED ON UNIT   51 AT END OF TIME STEP  96, STRESS PERIOD    2


                                          ================================================
                                                         FROM TIME =   97.000     TO    98.000    

>>>>>>> Stashed changes
 
 SOLVING FOR HEAD 
 FLOW MODEL IS TRANSIENT
 FLOW MODEL CONTAINS CONSTANT-HEAD CELLS


 MAXIMUM STEPSIZE DURING WHICH ANY PARTICLE CANNOT MOVE MORE THAN ONE CELL
<<<<<<< Updated upstream
 = 0.1632    (WHEN MIN. R.F.=1)  AT K=   3, I=   2, J=  29

 MAXIMUM STEPSIZE WHICH MEETS STABILITY CRITERION OF THE ADVECTION TERM
 (FOR PURE FINITE-DIFFERENCE OPTION, MIXELM=0) 
 = 0.1132    (WHEN MIN. R.F.=1)  AT K=   3, I=   2, J=  28
=======
 = 0.1869    (WHEN MIN. R.F.=1)  AT K=   3, I=   2, J=  31

 MAXIMUM STEPSIZE WHICH MEETS STABILITY CRITERION OF THE ADVECTION TERM
 (FOR PURE FINITE-DIFFERENCE OPTION, MIXELM=0) 
 = 0.1248    (WHEN MIN. R.F.=1)  AT K=   3, I=   2, J=  30
>>>>>>> Stashed changes


 TOTAL NUMBER OF POINT SOURCES/SINKS PRESENT IN THE FLOW MODEL =   240

 MAXIMUM STEPSIZE WHICH MEETS STABILITY CRITERION OF THE SINK & SOURCE TERM
 = 0.1000E+31(WHEN MIN. R.F.=1)  AT K=   0, I=   0, J=   0

 MAXIMUM STEPSIZE WHICH MEETS STABILITY CRITERION OF THE DISPERSION TERM
<<<<<<< Updated upstream
 = 0.6193E-02(WHEN MIN. R.F.=1)  AT K=   3, I=   2, J=  31
     1 CALLS TO GCG PACKAGE FOR TRANSPORT TIME STEP   5 IN FLOW TIME STEP  97 STRESS PERIOD   2
    10 TOTAL ITERATIONS
=======
 = 0.6695E-02(WHEN MIN. R.F.=1)  AT K=   3, I=   2, J=  30


     1 CALLS TO GCG PACKAGE FOR TRANSPORT TIME STEP   1 IN FLOW TIME STEP  97 STRESS PERIOD   2
    12 TOTAL ITERATIONS

 OUTPUT CONTROL FOR STRESS PERIOD    2   TIME STEP  97
    SAVE HEAD FOR ALL LAYERS
    SAVE BUDGET
>>>>>>> Stashed changes
 
 SOLVING FOR HEAD 
 FLOW MODEL IS TRANSIENT
 FLOW MODEL CONTAINS CONSTANT-HEAD CELLS


 MAXIMUM STEPSIZE DURING WHICH ANY PARTICLE CANNOT MOVE MORE THAN ONE CELL
<<<<<<< Updated upstream
 = 0.1632    (WHEN MIN. R.F.=1)  AT K=   3, I=   2, J=  29

 MAXIMUM STEPSIZE WHICH MEETS STABILITY CRITERION OF THE ADVECTION TERM
 (FOR PURE FINITE-DIFFERENCE OPTION, MIXELM=0) 
 = 0.1132    (WHEN MIN. R.F.=1)  AT K=   3, I=   2, J=  28
=======
 = 0.1869    (WHEN MIN. R.F.=1)  AT K=   3, I=   2, J=  31

 MAXIMUM STEPSIZE WHICH MEETS STABILITY CRITERION OF THE ADVECTION TERM
 (FOR PURE FINITE-DIFFERENCE OPTION, MIXELM=0) 
 = 0.1248    (WHEN MIN. R.F.=1)  AT K=   3, I=   2, J=  30
>>>>>>> Stashed changes


 TOTAL NUMBER OF POINT SOURCES/SINKS PRESENT IN THE FLOW MODEL =   240

 MAXIMUM STEPSIZE WHICH MEETS STABILITY CRITERION OF THE SINK & SOURCE TERM
 = 0.1000E+31(WHEN MIN. R.F.=1)  AT K=   0, I=   0, J=   0

 MAXIMUM STEPSIZE WHICH MEETS STABILITY CRITERION OF THE DISPERSION TERM
<<<<<<< Updated upstream
 = 0.6193E-02(WHEN MIN. R.F.=1)  AT K=   3, I=   2, J=  31
     1 CALLS TO GCG PACKAGE FOR TRANSPORT TIME STEP   6 IN FLOW TIME STEP  97 STRESS PERIOD   2
    10 TOTAL ITERATIONS
=======
 = 0.6695E-02(WHEN MIN. R.F.=1)  AT K=   3, I=   2, J=  30
     1 CALLS TO GCG PACKAGE FOR TRANSPORT TIME STEP   2 IN FLOW TIME STEP  97 STRESS PERIOD   2
    12 TOTAL ITERATIONS
>>>>>>> Stashed changes
 
 SOLVING FOR HEAD 
 FLOW MODEL IS TRANSIENT
 FLOW MODEL CONTAINS CONSTANT-HEAD CELLS


 MAXIMUM STEPSIZE DURING WHICH ANY PARTICLE CANNOT MOVE MORE THAN ONE CELL
<<<<<<< Updated upstream
 = 0.1632    (WHEN MIN. R.F.=1)  AT K=   3, I=   2, J=  29

 MAXIMUM STEPSIZE WHICH MEETS STABILITY CRITERION OF THE ADVECTION TERM
 (FOR PURE FINITE-DIFFERENCE OPTION, MIXELM=0) 
 = 0.1132    (WHEN MIN. R.F.=1)  AT K=   3, I=   2, J=  28
=======
 = 0.1869    (WHEN MIN. R.F.=1)  AT K=   3, I=   2, J=  31

 MAXIMUM STEPSIZE WHICH MEETS STABILITY CRITERION OF THE ADVECTION TERM
 (FOR PURE FINITE-DIFFERENCE OPTION, MIXELM=0) 
 = 0.1248    (WHEN MIN. R.F.=1)  AT K=   3, I=   2, J=  30
>>>>>>> Stashed changes


 TOTAL NUMBER OF POINT SOURCES/SINKS PRESENT IN THE FLOW MODEL =   240

 MAXIMUM STEPSIZE WHICH MEETS STABILITY CRITERION OF THE SINK & SOURCE TERM
 = 0.1000E+31(WHEN MIN. R.F.=1)  AT K=   0, I=   0, J=   0

 MAXIMUM STEPSIZE WHICH MEETS STABILITY CRITERION OF THE DISPERSION TERM
<<<<<<< Updated upstream
 = 0.6193E-02(WHEN MIN. R.F.=1)  AT K=   3, I=   2, J=  31
     1 CALLS TO GCG PACKAGE FOR TRANSPORT TIME STEP   7 IN FLOW TIME STEP  97 STRESS PERIOD   2
    10 TOTAL ITERATIONS
=======
 = 0.6695E-02(WHEN MIN. R.F.=1)  AT K=   3, I=   2, J=  30
     1 CALLS TO GCG PACKAGE FOR TRANSPORT TIME STEP   3 IN FLOW TIME STEP  97 STRESS PERIOD   2
    12 TOTAL ITERATIONS
>>>>>>> Stashed changes
 
 SOLVING FOR HEAD 
 FLOW MODEL IS TRANSIENT
 FLOW MODEL CONTAINS CONSTANT-HEAD CELLS


 MAXIMUM STEPSIZE DURING WHICH ANY PARTICLE CANNOT MOVE MORE THAN ONE CELL
<<<<<<< Updated upstream
 = 0.1632    (WHEN MIN. R.F.=1)  AT K=   3, I=   2, J=  29

 MAXIMUM STEPSIZE WHICH MEETS STABILITY CRITERION OF THE ADVECTION TERM
 (FOR PURE FINITE-DIFFERENCE OPTION, MIXELM=0) 
 = 0.1132    (WHEN MIN. R.F.=1)  AT K=   3, I=   2, J=  28
=======
 = 0.1869    (WHEN MIN. R.F.=1)  AT K=   3, I=   2, J=  31

 MAXIMUM STEPSIZE WHICH MEETS STABILITY CRITERION OF THE ADVECTION TERM
 (FOR PURE FINITE-DIFFERENCE OPTION, MIXELM=0) 
 = 0.1248    (WHEN MIN. R.F.=1)  AT K=   3, I=   2, J=  30
>>>>>>> Stashed changes


 TOTAL NUMBER OF POINT SOURCES/SINKS PRESENT IN THE FLOW MODEL =   240

 MAXIMUM STEPSIZE WHICH MEETS STABILITY CRITERION OF THE SINK & SOURCE TERM
 = 0.1000E+31(WHEN MIN. R.F.=1)  AT K=   0, I=   0, J=   0

 MAXIMUM STEPSIZE WHICH MEETS STABILITY CRITERION OF THE DISPERSION TERM
<<<<<<< Updated upstream
 = 0.6193E-02(WHEN MIN. R.F.=1)  AT K=   3, I=   2, J=  31
     1 CALLS TO GCG PACKAGE FOR TRANSPORT TIME STEP   8 IN FLOW TIME STEP  97 STRESS PERIOD   2
    10 TOTAL ITERATIONS
=======
 = 0.6694E-02(WHEN MIN. R.F.=1)  AT K=   3, I=   2, J=  30
     1 CALLS TO GCG PACKAGE FOR TRANSPORT TIME STEP   4 IN FLOW TIME STEP  97 STRESS PERIOD   2
    12 TOTAL ITERATIONS
>>>>>>> Stashed changes
 
 SOLVING FOR HEAD 
 FLOW MODEL IS TRANSIENT
 FLOW MODEL CONTAINS CONSTANT-HEAD CELLS


 MAXIMUM STEPSIZE DURING WHICH ANY PARTICLE CANNOT MOVE MORE THAN ONE CELL
<<<<<<< Updated upstream
 = 0.1632    (WHEN MIN. R.F.=1)  AT K=   3, I=   2, J=  29

 MAXIMUM STEPSIZE WHICH MEETS STABILITY CRITERION OF THE ADVECTION TERM
 (FOR PURE FINITE-DIFFERENCE OPTION, MIXELM=0) 
 = 0.1132    (WHEN MIN. R.F.=1)  AT K=   3, I=   2, J=  28
=======
 = 0.1869    (WHEN MIN. R.F.=1)  AT K=   3, I=   2, J=  31

 MAXIMUM STEPSIZE WHICH MEETS STABILITY CRITERION OF THE ADVECTION TERM
 (FOR PURE FINITE-DIFFERENCE OPTION, MIXELM=0) 
 = 0.1248    (WHEN MIN. R.F.=1)  AT K=   3, I=   2, J=  30
>>>>>>> Stashed changes


 TOTAL NUMBER OF POINT SOURCES/SINKS PRESENT IN THE FLOW MODEL =   240

 MAXIMUM STEPSIZE WHICH MEETS STABILITY CRITERION OF THE SINK & SOURCE TERM
 = 0.1000E+31(WHEN MIN. R.F.=1)  AT K=   0, I=   0, J=   0

 MAXIMUM STEPSIZE WHICH MEETS STABILITY CRITERION OF THE DISPERSION TERM
<<<<<<< Updated upstream
 = 0.6193E-02(WHEN MIN. R.F.=1)  AT K=   3, I=   2, J=  31
     1 CALLS TO GCG PACKAGE FOR TRANSPORT TIME STEP   9 IN FLOW TIME STEP  97 STRESS PERIOD   2
     4 TOTAL ITERATIONS
  MAXIMUM CONCENTRATION CHANGES FOR EACH ITERATION:
  MAX. CHANGE LAYER,ROW,COL MAX. CHANGE LAYER,ROW,COL MAX. CHANGE LAYER,ROW,COL MAX. CHANGE LAYER,ROW,COL MAX. CHANGE LAYER,ROW,COL
 ------------------------------------------------------------------------------------------------------------------------------------
   0.1358E-03 ( 13,  3, 55)  0.3063E-05 (  5,  2, 65)  0.5058E-06 (  6,  1, 56)  0.6427E-07 (  6,  1, 54)


                                          ================================================
                                                         FROM TIME =   98.000     TO    99.000    

=======
 = 0.6694E-02(WHEN MIN. R.F.=1)  AT K=   3, I=   2, J=  30
     1 CALLS TO GCG PACKAGE FOR TRANSPORT TIME STEP   5 IN FLOW TIME STEP  97 STRESS PERIOD   2
    12 TOTAL ITERATIONS
>>>>>>> Stashed changes
 
 SOLVING FOR HEAD 
 FLOW MODEL IS TRANSIENT
 FLOW MODEL CONTAINS CONSTANT-HEAD CELLS


 MAXIMUM STEPSIZE DURING WHICH ANY PARTICLE CANNOT MOVE MORE THAN ONE CELL
<<<<<<< Updated upstream
 = 0.1632    (WHEN MIN. R.F.=1)  AT K=   3, I=   2, J=  29

 MAXIMUM STEPSIZE WHICH MEETS STABILITY CRITERION OF THE ADVECTION TERM
 (FOR PURE FINITE-DIFFERENCE OPTION, MIXELM=0) 
 = 0.1132    (WHEN MIN. R.F.=1)  AT K=   3, I=   2, J=  28
=======
 = 0.1869    (WHEN MIN. R.F.=1)  AT K=   3, I=   2, J=  31

 MAXIMUM STEPSIZE WHICH MEETS STABILITY CRITERION OF THE ADVECTION TERM
 (FOR PURE FINITE-DIFFERENCE OPTION, MIXELM=0) 
 = 0.1248    (WHEN MIN. R.F.=1)  AT K=   3, I=   2, J=  30
>>>>>>> Stashed changes


 TOTAL NUMBER OF POINT SOURCES/SINKS PRESENT IN THE FLOW MODEL =   240

 MAXIMUM STEPSIZE WHICH MEETS STABILITY CRITERION OF THE SINK & SOURCE TERM
 = 0.1000E+31(WHEN MIN. R.F.=1)  AT K=   0, I=   0, J=   0

 MAXIMUM STEPSIZE WHICH MEETS STABILITY CRITERION OF THE DISPERSION TERM
<<<<<<< Updated upstream
 = 0.6193E-02(WHEN MIN. R.F.=1)  AT K=   3, I=   2, J=  31


     1 CALLS TO GCG PACKAGE FOR TRANSPORT TIME STEP   1 IN FLOW TIME STEP  98 STRESS PERIOD   2
    10 TOTAL ITERATIONS

 NO OUTPUT CONTROL FOR STRESS PERIOD    2   TIME STEP  98
=======
 = 0.6694E-02(WHEN MIN. R.F.=1)  AT K=   3, I=   2, J=  30
     1 CALLS TO GCG PACKAGE FOR TRANSPORT TIME STEP   6 IN FLOW TIME STEP  97 STRESS PERIOD   2
    12 TOTAL ITERATIONS
>>>>>>> Stashed changes
 
 SOLVING FOR HEAD 
 FLOW MODEL IS TRANSIENT
 FLOW MODEL CONTAINS CONSTANT-HEAD CELLS


 MAXIMUM STEPSIZE DURING WHICH ANY PARTICLE CANNOT MOVE MORE THAN ONE CELL
<<<<<<< Updated upstream
 = 0.1632    (WHEN MIN. R.F.=1)  AT K=   3, I=   2, J=  29

 MAXIMUM STEPSIZE WHICH MEETS STABILITY CRITERION OF THE ADVECTION TERM
 (FOR PURE FINITE-DIFFERENCE OPTION, MIXELM=0) 
 = 0.1132    (WHEN MIN. R.F.=1)  AT K=   3, I=   2, J=  28
=======
 = 0.1869    (WHEN MIN. R.F.=1)  AT K=   3, I=   2, J=  31

 MAXIMUM STEPSIZE WHICH MEETS STABILITY CRITERION OF THE ADVECTION TERM
 (FOR PURE FINITE-DIFFERENCE OPTION, MIXELM=0) 
 = 0.1248    (WHEN MIN. R.F.=1)  AT K=   3, I=   2, J=  30
>>>>>>> Stashed changes


 TOTAL NUMBER OF POINT SOURCES/SINKS PRESENT IN THE FLOW MODEL =   240

 MAXIMUM STEPSIZE WHICH MEETS STABILITY CRITERION OF THE SINK & SOURCE TERM
 = 0.1000E+31(WHEN MIN. R.F.=1)  AT K=   0, I=   0, J=   0

 MAXIMUM STEPSIZE WHICH MEETS STABILITY CRITERION OF THE DISPERSION TERM
<<<<<<< Updated upstream
 = 0.6193E-02(WHEN MIN. R.F.=1)  AT K=   3, I=   2, J=  31
     1 CALLS TO GCG PACKAGE FOR TRANSPORT TIME STEP   2 IN FLOW TIME STEP  98 STRESS PERIOD   2
    10 TOTAL ITERATIONS
=======
 = 0.6694E-02(WHEN MIN. R.F.=1)  AT K=   3, I=   2, J=  30
     1 CALLS TO GCG PACKAGE FOR TRANSPORT TIME STEP   7 IN FLOW TIME STEP  97 STRESS PERIOD   2
    12 TOTAL ITERATIONS
>>>>>>> Stashed changes
 
 SOLVING FOR HEAD 
 FLOW MODEL IS TRANSIENT
 FLOW MODEL CONTAINS CONSTANT-HEAD CELLS


 MAXIMUM STEPSIZE DURING WHICH ANY PARTICLE CANNOT MOVE MORE THAN ONE CELL
<<<<<<< Updated upstream
 = 0.1632    (WHEN MIN. R.F.=1)  AT K=   3, I=   2, J=  29

 MAXIMUM STEPSIZE WHICH MEETS STABILITY CRITERION OF THE ADVECTION TERM
 (FOR PURE FINITE-DIFFERENCE OPTION, MIXELM=0) 
 = 0.1132    (WHEN MIN. R.F.=1)  AT K=   3, I=   2, J=  28
=======
 = 0.1869    (WHEN MIN. R.F.=1)  AT K=   3, I=   2, J=  31

 MAXIMUM STEPSIZE WHICH MEETS STABILITY CRITERION OF THE ADVECTION TERM
 (FOR PURE FINITE-DIFFERENCE OPTION, MIXELM=0) 
 = 0.1248    (WHEN MIN. R.F.=1)  AT K=   3, I=   2, J=  30
>>>>>>> Stashed changes


 TOTAL NUMBER OF POINT SOURCES/SINKS PRESENT IN THE FLOW MODEL =   240

 MAXIMUM STEPSIZE WHICH MEETS STABILITY CRITERION OF THE SINK & SOURCE TERM
 = 0.1000E+31(WHEN MIN. R.F.=1)  AT K=   0, I=   0, J=   0

 MAXIMUM STEPSIZE WHICH MEETS STABILITY CRITERION OF THE DISPERSION TERM
<<<<<<< Updated upstream
 = 0.6193E-02(WHEN MIN. R.F.=1)  AT K=   3, I=   2, J=  31
     1 CALLS TO GCG PACKAGE FOR TRANSPORT TIME STEP   3 IN FLOW TIME STEP  98 STRESS PERIOD   2
    10 TOTAL ITERATIONS
=======
 = 0.6694E-02(WHEN MIN. R.F.=1)  AT K=   3, I=   2, J=  30
     1 CALLS TO GCG PACKAGE FOR TRANSPORT TIME STEP   8 IN FLOW TIME STEP  97 STRESS PERIOD   2
     4 TOTAL ITERATIONS
  MAXIMUM CONCENTRATION CHANGES FOR EACH ITERATION:
  MAX. CHANGE LAYER,ROW,COL MAX. CHANGE LAYER,ROW,COL MAX. CHANGE LAYER,ROW,COL MAX. CHANGE LAYER,ROW,COL MAX. CHANGE LAYER,ROW,COL
 ------------------------------------------------------------------------------------------------------------------------------------
   0.8070E-04 ( 14,  2, 57)  0.1840E-05 (  5,  2, 64)  0.3032E-06 (  4,  2, 56)  0.5955E-07 (  3,  2, 44)
 UBDSV1 SAVING "         STORAGE" ON UNIT  53 AT TIME STEP 97, STRESS PERIOD   2
 UBDSV2 SAVING "   CONSTANT HEAD" ON UNIT  53 AT TIME STEP 97, STRESS PERIOD   2
 UBDSV1 SAVING "FLOW RIGHT FACE " ON UNIT  53 AT TIME STEP 97, STRESS PERIOD   2
 UBDSV1 SAVING "FLOW FRONT FACE " ON UNIT  53 AT TIME STEP 97, STRESS PERIOD   2
 UBDSV1 SAVING "FLOW LOWER FACE " ON UNIT  53 AT TIME STEP 97, STRESS PERIOD   2
 UBDSV1 SAVING "            DCDT" ON UNIT  53 AT TIME STEP 97, STRESS PERIOD   2

 HEAD WILL BE SAVED ON UNIT   51 AT END OF TIME STEP  97, STRESS PERIOD    2


                                          ================================================
                                                         FROM TIME =   98.000     TO    99.000    

>>>>>>> Stashed changes
 
 SOLVING FOR HEAD 
 FLOW MODEL IS TRANSIENT
 FLOW MODEL CONTAINS CONSTANT-HEAD CELLS


 MAXIMUM STEPSIZE DURING WHICH ANY PARTICLE CANNOT MOVE MORE THAN ONE CELL
<<<<<<< Updated upstream
 = 0.1632    (WHEN MIN. R.F.=1)  AT K=   3, I=   2, J=  29

 MAXIMUM STEPSIZE WHICH MEETS STABILITY CRITERION OF THE ADVECTION TERM
 (FOR PURE FINITE-DIFFERENCE OPTION, MIXELM=0) 
 = 0.1132    (WHEN MIN. R.F.=1)  AT K=   3, I=   2, J=  28
=======
 = 0.1869    (WHEN MIN. R.F.=1)  AT K=   3, I=   2, J=  31

 MAXIMUM STEPSIZE WHICH MEETS STABILITY CRITERION OF THE ADVECTION TERM
 (FOR PURE FINITE-DIFFERENCE OPTION, MIXELM=0) 
 = 0.1248    (WHEN MIN. R.F.=1)  AT K=   3, I=   2, J=  30
>>>>>>> Stashed changes


 TOTAL NUMBER OF POINT SOURCES/SINKS PRESENT IN THE FLOW MODEL =   240

 MAXIMUM STEPSIZE WHICH MEETS STABILITY CRITERION OF THE SINK & SOURCE TERM
 = 0.1000E+31(WHEN MIN. R.F.=1)  AT K=   0, I=   0, J=   0

 MAXIMUM STEPSIZE WHICH MEETS STABILITY CRITERION OF THE DISPERSION TERM
<<<<<<< Updated upstream
 = 0.6193E-02(WHEN MIN. R.F.=1)  AT K=   3, I=   2, J=  31
     1 CALLS TO GCG PACKAGE FOR TRANSPORT TIME STEP   4 IN FLOW TIME STEP  98 STRESS PERIOD   2
    10 TOTAL ITERATIONS
=======
 = 0.6694E-02(WHEN MIN. R.F.=1)  AT K=   3, I=   2, J=  30


     1 CALLS TO GCG PACKAGE FOR TRANSPORT TIME STEP   1 IN FLOW TIME STEP  98 STRESS PERIOD   2
    12 TOTAL ITERATIONS

 OUTPUT CONTROL FOR STRESS PERIOD    2   TIME STEP  98
    SAVE HEAD FOR ALL LAYERS
    SAVE BUDGET
>>>>>>> Stashed changes
 
 SOLVING FOR HEAD 
 FLOW MODEL IS TRANSIENT
 FLOW MODEL CONTAINS CONSTANT-HEAD CELLS


 MAXIMUM STEPSIZE DURING WHICH ANY PARTICLE CANNOT MOVE MORE THAN ONE CELL
<<<<<<< Updated upstream
 = 0.1632    (WHEN MIN. R.F.=1)  AT K=   3, I=   2, J=  29

 MAXIMUM STEPSIZE WHICH MEETS STABILITY CRITERION OF THE ADVECTION TERM
 (FOR PURE FINITE-DIFFERENCE OPTION, MIXELM=0) 
 = 0.1132    (WHEN MIN. R.F.=1)  AT K=   3, I=   2, J=  28
=======
 = 0.1869    (WHEN MIN. R.F.=1)  AT K=   3, I=   2, J=  31

 MAXIMUM STEPSIZE WHICH MEETS STABILITY CRITERION OF THE ADVECTION TERM
 (FOR PURE FINITE-DIFFERENCE OPTION, MIXELM=0) 
 = 0.1248    (WHEN MIN. R.F.=1)  AT K=   3, I=   2, J=  30
>>>>>>> Stashed changes


 TOTAL NUMBER OF POINT SOURCES/SINKS PRESENT IN THE FLOW MODEL =   240

 MAXIMUM STEPSIZE WHICH MEETS STABILITY CRITERION OF THE SINK & SOURCE TERM
 = 0.1000E+31(WHEN MIN. R.F.=1)  AT K=   0, I=   0, J=   0

 MAXIMUM STEPSIZE WHICH MEETS STABILITY CRITERION OF THE DISPERSION TERM
<<<<<<< Updated upstream
 = 0.6193E-02(WHEN MIN. R.F.=1)  AT K=   3, I=   2, J=  31
     1 CALLS TO GCG PACKAGE FOR TRANSPORT TIME STEP   5 IN FLOW TIME STEP  98 STRESS PERIOD   2
    10 TOTAL ITERATIONS
=======
 = 0.6694E-02(WHEN MIN. R.F.=1)  AT K=   3, I=   2, J=  30
     1 CALLS TO GCG PACKAGE FOR TRANSPORT TIME STEP   2 IN FLOW TIME STEP  98 STRESS PERIOD   2
    12 TOTAL ITERATIONS
>>>>>>> Stashed changes
 
 SOLVING FOR HEAD 
 FLOW MODEL IS TRANSIENT
 FLOW MODEL CONTAINS CONSTANT-HEAD CELLS


 MAXIMUM STEPSIZE DURING WHICH ANY PARTICLE CANNOT MOVE MORE THAN ONE CELL
<<<<<<< Updated upstream
 = 0.1632    (WHEN MIN. R.F.=1)  AT K=   3, I=   2, J=  29

 MAXIMUM STEPSIZE WHICH MEETS STABILITY CRITERION OF THE ADVECTION TERM
 (FOR PURE FINITE-DIFFERENCE OPTION, MIXELM=0) 
 = 0.1132    (WHEN MIN. R.F.=1)  AT K=   3, I=   2, J=  28
=======
 = 0.1869    (WHEN MIN. R.F.=1)  AT K=   3, I=   2, J=  31

 MAXIMUM STEPSIZE WHICH MEETS STABILITY CRITERION OF THE ADVECTION TERM
 (FOR PURE FINITE-DIFFERENCE OPTION, MIXELM=0) 
 = 0.1248    (WHEN MIN. R.F.=1)  AT K=   3, I=   2, J=  30
>>>>>>> Stashed changes


 TOTAL NUMBER OF POINT SOURCES/SINKS PRESENT IN THE FLOW MODEL =   240

 MAXIMUM STEPSIZE WHICH MEETS STABILITY CRITERION OF THE SINK & SOURCE TERM
 = 0.1000E+31(WHEN MIN. R.F.=1)  AT K=   0, I=   0, J=   0

 MAXIMUM STEPSIZE WHICH MEETS STABILITY CRITERION OF THE DISPERSION TERM
<<<<<<< Updated upstream
 = 0.6193E-02(WHEN MIN. R.F.=1)  AT K=   3, I=   2, J=  31
     1 CALLS TO GCG PACKAGE FOR TRANSPORT TIME STEP   6 IN FLOW TIME STEP  98 STRESS PERIOD   2
    10 TOTAL ITERATIONS
=======
 = 0.6694E-02(WHEN MIN. R.F.=1)  AT K=   3, I=   2, J=  30
     1 CALLS TO GCG PACKAGE FOR TRANSPORT TIME STEP   3 IN FLOW TIME STEP  98 STRESS PERIOD   2
    12 TOTAL ITERATIONS
>>>>>>> Stashed changes
 
 SOLVING FOR HEAD 
 FLOW MODEL IS TRANSIENT
 FLOW MODEL CONTAINS CONSTANT-HEAD CELLS


 MAXIMUM STEPSIZE DURING WHICH ANY PARTICLE CANNOT MOVE MORE THAN ONE CELL
<<<<<<< Updated upstream
 = 0.1632    (WHEN MIN. R.F.=1)  AT K=   3, I=   2, J=  29

 MAXIMUM STEPSIZE WHICH MEETS STABILITY CRITERION OF THE ADVECTION TERM
 (FOR PURE FINITE-DIFFERENCE OPTION, MIXELM=0) 
 = 0.1132    (WHEN MIN. R.F.=1)  AT K=   3, I=   2, J=  28
=======
 = 0.1869    (WHEN MIN. R.F.=1)  AT K=   3, I=   2, J=  31

 MAXIMUM STEPSIZE WHICH MEETS STABILITY CRITERION OF THE ADVECTION TERM
 (FOR PURE FINITE-DIFFERENCE OPTION, MIXELM=0) 
 = 0.1248    (WHEN MIN. R.F.=1)  AT K=   3, I=   2, J=  30
>>>>>>> Stashed changes


 TOTAL NUMBER OF POINT SOURCES/SINKS PRESENT IN THE FLOW MODEL =   240

 MAXIMUM STEPSIZE WHICH MEETS STABILITY CRITERION OF THE SINK & SOURCE TERM
 = 0.1000E+31(WHEN MIN. R.F.=1)  AT K=   0, I=   0, J=   0

 MAXIMUM STEPSIZE WHICH MEETS STABILITY CRITERION OF THE DISPERSION TERM
<<<<<<< Updated upstream
 = 0.6193E-02(WHEN MIN. R.F.=1)  AT K=   3, I=   2, J=  31
     1 CALLS TO GCG PACKAGE FOR TRANSPORT TIME STEP   7 IN FLOW TIME STEP  98 STRESS PERIOD   2
    10 TOTAL ITERATIONS
=======
 = 0.6694E-02(WHEN MIN. R.F.=1)  AT K=   3, I=   2, J=  30
     1 CALLS TO GCG PACKAGE FOR TRANSPORT TIME STEP   4 IN FLOW TIME STEP  98 STRESS PERIOD   2
    12 TOTAL ITERATIONS
>>>>>>> Stashed changes
 
 SOLVING FOR HEAD 
 FLOW MODEL IS TRANSIENT
 FLOW MODEL CONTAINS CONSTANT-HEAD CELLS


 MAXIMUM STEPSIZE DURING WHICH ANY PARTICLE CANNOT MOVE MORE THAN ONE CELL
<<<<<<< Updated upstream
 = 0.1632    (WHEN MIN. R.F.=1)  AT K=   3, I=   2, J=  29

 MAXIMUM STEPSIZE WHICH MEETS STABILITY CRITERION OF THE ADVECTION TERM
 (FOR PURE FINITE-DIFFERENCE OPTION, MIXELM=0) 
 = 0.1132    (WHEN MIN. R.F.=1)  AT K=   3, I=   2, J=  28
=======
 = 0.1869    (WHEN MIN. R.F.=1)  AT K=   3, I=   2, J=  31

 MAXIMUM STEPSIZE WHICH MEETS STABILITY CRITERION OF THE ADVECTION TERM
 (FOR PURE FINITE-DIFFERENCE OPTION, MIXELM=0) 
 = 0.1248    (WHEN MIN. R.F.=1)  AT K=   3, I=   2, J=  30
>>>>>>> Stashed changes


 TOTAL NUMBER OF POINT SOURCES/SINKS PRESENT IN THE FLOW MODEL =   240

 MAXIMUM STEPSIZE WHICH MEETS STABILITY CRITERION OF THE SINK & SOURCE TERM
 = 0.1000E+31(WHEN MIN. R.F.=1)  AT K=   0, I=   0, J=   0

 MAXIMUM STEPSIZE WHICH MEETS STABILITY CRITERION OF THE DISPERSION TERM
<<<<<<< Updated upstream
 = 0.6193E-02(WHEN MIN. R.F.=1)  AT K=   3, I=   2, J=  31
     1 CALLS TO GCG PACKAGE FOR TRANSPORT TIME STEP   8 IN FLOW TIME STEP  98 STRESS PERIOD   2
    10 TOTAL ITERATIONS
=======
 = 0.6694E-02(WHEN MIN. R.F.=1)  AT K=   3, I=   2, J=  30
     1 CALLS TO GCG PACKAGE FOR TRANSPORT TIME STEP   5 IN FLOW TIME STEP  98 STRESS PERIOD   2
    12 TOTAL ITERATIONS
>>>>>>> Stashed changes
 
 SOLVING FOR HEAD 
 FLOW MODEL IS TRANSIENT
 FLOW MODEL CONTAINS CONSTANT-HEAD CELLS


 MAXIMUM STEPSIZE DURING WHICH ANY PARTICLE CANNOT MOVE MORE THAN ONE CELL
<<<<<<< Updated upstream
 = 0.1632    (WHEN MIN. R.F.=1)  AT K=   3, I=   2, J=  29

 MAXIMUM STEPSIZE WHICH MEETS STABILITY CRITERION OF THE ADVECTION TERM
 (FOR PURE FINITE-DIFFERENCE OPTION, MIXELM=0) 
 = 0.1132    (WHEN MIN. R.F.=1)  AT K=   3, I=   2, J=  28
=======
 = 0.1869    (WHEN MIN. R.F.=1)  AT K=   3, I=   2, J=  31

 MAXIMUM STEPSIZE WHICH MEETS STABILITY CRITERION OF THE ADVECTION TERM
 (FOR PURE FINITE-DIFFERENCE OPTION, MIXELM=0) 
 = 0.1248    (WHEN MIN. R.F.=1)  AT K=   3, I=   2, J=  30
>>>>>>> Stashed changes


 TOTAL NUMBER OF POINT SOURCES/SINKS PRESENT IN THE FLOW MODEL =   240

 MAXIMUM STEPSIZE WHICH MEETS STABILITY CRITERION OF THE SINK & SOURCE TERM
 = 0.1000E+31(WHEN MIN. R.F.=1)  AT K=   0, I=   0, J=   0

 MAXIMUM STEPSIZE WHICH MEETS STABILITY CRITERION OF THE DISPERSION TERM
<<<<<<< Updated upstream
 = 0.6193E-02(WHEN MIN. R.F.=1)  AT K=   3, I=   2, J=  31
     1 CALLS TO GCG PACKAGE FOR TRANSPORT TIME STEP   9 IN FLOW TIME STEP  98 STRESS PERIOD   2
     4 TOTAL ITERATIONS
  MAXIMUM CONCENTRATION CHANGES FOR EACH ITERATION:
  MAX. CHANGE LAYER,ROW,COL MAX. CHANGE LAYER,ROW,COL MAX. CHANGE LAYER,ROW,COL MAX. CHANGE LAYER,ROW,COL MAX. CHANGE LAYER,ROW,COL
 ------------------------------------------------------------------------------------------------------------------------------------
   0.1347E-03 ( 13,  3, 55)  0.3001E-05 (  5,  2, 65)  0.4922E-06 (  6,  1, 56)  0.6296E-07 (  6,  1, 54)


                                          ================================================
                                                         FROM TIME =   99.000     TO   100.000    

=======
 = 0.6694E-02(WHEN MIN. R.F.=1)  AT K=   3, I=   2, J=  30
     1 CALLS TO GCG PACKAGE FOR TRANSPORT TIME STEP   6 IN FLOW TIME STEP  98 STRESS PERIOD   2
    12 TOTAL ITERATIONS
>>>>>>> Stashed changes
 
 SOLVING FOR HEAD 
 FLOW MODEL IS TRANSIENT
 FLOW MODEL CONTAINS CONSTANT-HEAD CELLS


 MAXIMUM STEPSIZE DURING WHICH ANY PARTICLE CANNOT MOVE MORE THAN ONE CELL
<<<<<<< Updated upstream
 = 0.1632    (WHEN MIN. R.F.=1)  AT K=   3, I=   2, J=  29

 MAXIMUM STEPSIZE WHICH MEETS STABILITY CRITERION OF THE ADVECTION TERM
 (FOR PURE FINITE-DIFFERENCE OPTION, MIXELM=0) 
 = 0.1132    (WHEN MIN. R.F.=1)  AT K=   3, I=   2, J=  28
=======
 = 0.1869    (WHEN MIN. R.F.=1)  AT K=   3, I=   2, J=  31

 MAXIMUM STEPSIZE WHICH MEETS STABILITY CRITERION OF THE ADVECTION TERM
 (FOR PURE FINITE-DIFFERENCE OPTION, MIXELM=0) 
 = 0.1248    (WHEN MIN. R.F.=1)  AT K=   3, I=   2, J=  30
>>>>>>> Stashed changes


 TOTAL NUMBER OF POINT SOURCES/SINKS PRESENT IN THE FLOW MODEL =   240

 MAXIMUM STEPSIZE WHICH MEETS STABILITY CRITERION OF THE SINK & SOURCE TERM
 = 0.1000E+31(WHEN MIN. R.F.=1)  AT K=   0, I=   0, J=   0

 MAXIMUM STEPSIZE WHICH MEETS STABILITY CRITERION OF THE DISPERSION TERM
<<<<<<< Updated upstream
 = 0.6193E-02(WHEN MIN. R.F.=1)  AT K=   3, I=   2, J=  31


     1 CALLS TO GCG PACKAGE FOR TRANSPORT TIME STEP   1 IN FLOW TIME STEP  99 STRESS PERIOD   2
    10 TOTAL ITERATIONS

 NO OUTPUT CONTROL FOR STRESS PERIOD    2   TIME STEP  99
=======
 = 0.6694E-02(WHEN MIN. R.F.=1)  AT K=   3, I=   2, J=  30
     1 CALLS TO GCG PACKAGE FOR TRANSPORT TIME STEP   7 IN FLOW TIME STEP  98 STRESS PERIOD   2
    12 TOTAL ITERATIONS
>>>>>>> Stashed changes
 
 SOLVING FOR HEAD 
 FLOW MODEL IS TRANSIENT
 FLOW MODEL CONTAINS CONSTANT-HEAD CELLS


 MAXIMUM STEPSIZE DURING WHICH ANY PARTICLE CANNOT MOVE MORE THAN ONE CELL
<<<<<<< Updated upstream
 = 0.1632    (WHEN MIN. R.F.=1)  AT K=   3, I=   2, J=  29

 MAXIMUM STEPSIZE WHICH MEETS STABILITY CRITERION OF THE ADVECTION TERM
 (FOR PURE FINITE-DIFFERENCE OPTION, MIXELM=0) 
 = 0.1132    (WHEN MIN. R.F.=1)  AT K=   3, I=   2, J=  28
=======
 = 0.1869    (WHEN MIN. R.F.=1)  AT K=   3, I=   2, J=  31

 MAXIMUM STEPSIZE WHICH MEETS STABILITY CRITERION OF THE ADVECTION TERM
 (FOR PURE FINITE-DIFFERENCE OPTION, MIXELM=0) 
 = 0.1248    (WHEN MIN. R.F.=1)  AT K=   3, I=   2, J=  30
>>>>>>> Stashed changes


 TOTAL NUMBER OF POINT SOURCES/SINKS PRESENT IN THE FLOW MODEL =   240

 MAXIMUM STEPSIZE WHICH MEETS STABILITY CRITERION OF THE SINK & SOURCE TERM
 = 0.1000E+31(WHEN MIN. R.F.=1)  AT K=   0, I=   0, J=   0

 MAXIMUM STEPSIZE WHICH MEETS STABILITY CRITERION OF THE DISPERSION TERM
<<<<<<< Updated upstream
 = 0.6193E-02(WHEN MIN. R.F.=1)  AT K=   3, I=   2, J=  31
     1 CALLS TO GCG PACKAGE FOR TRANSPORT TIME STEP   2 IN FLOW TIME STEP  99 STRESS PERIOD   2
    10 TOTAL ITERATIONS
=======
 = 0.6694E-02(WHEN MIN. R.F.=1)  AT K=   3, I=   2, J=  30
     1 CALLS TO GCG PACKAGE FOR TRANSPORT TIME STEP   8 IN FLOW TIME STEP  98 STRESS PERIOD   2
     4 TOTAL ITERATIONS
  MAXIMUM CONCENTRATION CHANGES FOR EACH ITERATION:
  MAX. CHANGE LAYER,ROW,COL MAX. CHANGE LAYER,ROW,COL MAX. CHANGE LAYER,ROW,COL MAX. CHANGE LAYER,ROW,COL MAX. CHANGE LAYER,ROW,COL
 ------------------------------------------------------------------------------------------------------------------------------------
   0.7969E-04 ( 14,  2, 57)  0.1803E-05 (  5,  2, 64)  0.2957E-06 (  4,  2, 56)  0.5291E-07 (  3,  2, 43)
 UBDSV1 SAVING "         STORAGE" ON UNIT  53 AT TIME STEP 98, STRESS PERIOD   2
 UBDSV2 SAVING "   CONSTANT HEAD" ON UNIT  53 AT TIME STEP 98, STRESS PERIOD   2
 UBDSV1 SAVING "FLOW RIGHT FACE " ON UNIT  53 AT TIME STEP 98, STRESS PERIOD   2
 UBDSV1 SAVING "FLOW FRONT FACE " ON UNIT  53 AT TIME STEP 98, STRESS PERIOD   2
 UBDSV1 SAVING "FLOW LOWER FACE " ON UNIT  53 AT TIME STEP 98, STRESS PERIOD   2
 UBDSV1 SAVING "            DCDT" ON UNIT  53 AT TIME STEP 98, STRESS PERIOD   2

 HEAD WILL BE SAVED ON UNIT   51 AT END OF TIME STEP  98, STRESS PERIOD    2


                                          ================================================
                                                         FROM TIME =   99.000     TO    100.00    

>>>>>>> Stashed changes
 
 SOLVING FOR HEAD 
 FLOW MODEL IS TRANSIENT
 FLOW MODEL CONTAINS CONSTANT-HEAD CELLS


 MAXIMUM STEPSIZE DURING WHICH ANY PARTICLE CANNOT MOVE MORE THAN ONE CELL
<<<<<<< Updated upstream
 = 0.1632    (WHEN MIN. R.F.=1)  AT K=   3, I=   2, J=  29

 MAXIMUM STEPSIZE WHICH MEETS STABILITY CRITERION OF THE ADVECTION TERM
 (FOR PURE FINITE-DIFFERENCE OPTION, MIXELM=0) 
 = 0.1132    (WHEN MIN. R.F.=1)  AT K=   3, I=   2, J=  28
=======
 = 0.1869    (WHEN MIN. R.F.=1)  AT K=   3, I=   2, J=  31

 MAXIMUM STEPSIZE WHICH MEETS STABILITY CRITERION OF THE ADVECTION TERM
 (FOR PURE FINITE-DIFFERENCE OPTION, MIXELM=0) 
 = 0.1248    (WHEN MIN. R.F.=1)  AT K=   3, I=   2, J=  30
>>>>>>> Stashed changes


 TOTAL NUMBER OF POINT SOURCES/SINKS PRESENT IN THE FLOW MODEL =   240

 MAXIMUM STEPSIZE WHICH MEETS STABILITY CRITERION OF THE SINK & SOURCE TERM
 = 0.1000E+31(WHEN MIN. R.F.=1)  AT K=   0, I=   0, J=   0

 MAXIMUM STEPSIZE WHICH MEETS STABILITY CRITERION OF THE DISPERSION TERM
<<<<<<< Updated upstream
 = 0.6193E-02(WHEN MIN. R.F.=1)  AT K=   3, I=   2, J=  31
     1 CALLS TO GCG PACKAGE FOR TRANSPORT TIME STEP   3 IN FLOW TIME STEP  99 STRESS PERIOD   2
    10 TOTAL ITERATIONS
=======
 = 0.6694E-02(WHEN MIN. R.F.=1)  AT K=   3, I=   2, J=  30


     1 CALLS TO GCG PACKAGE FOR TRANSPORT TIME STEP   1 IN FLOW TIME STEP  99 STRESS PERIOD   2
    12 TOTAL ITERATIONS

 OUTPUT CONTROL FOR STRESS PERIOD    2   TIME STEP  99
    SAVE HEAD FOR ALL LAYERS
    SAVE BUDGET
>>>>>>> Stashed changes
 
 SOLVING FOR HEAD 
 FLOW MODEL IS TRANSIENT
 FLOW MODEL CONTAINS CONSTANT-HEAD CELLS


 MAXIMUM STEPSIZE DURING WHICH ANY PARTICLE CANNOT MOVE MORE THAN ONE CELL
<<<<<<< Updated upstream
 = 0.1632    (WHEN MIN. R.F.=1)  AT K=   3, I=   2, J=  29

 MAXIMUM STEPSIZE WHICH MEETS STABILITY CRITERION OF THE ADVECTION TERM
 (FOR PURE FINITE-DIFFERENCE OPTION, MIXELM=0) 
 = 0.1132    (WHEN MIN. R.F.=1)  AT K=   3, I=   2, J=  28
=======
 = 0.1869    (WHEN MIN. R.F.=1)  AT K=   3, I=   2, J=  31

 MAXIMUM STEPSIZE WHICH MEETS STABILITY CRITERION OF THE ADVECTION TERM
 (FOR PURE FINITE-DIFFERENCE OPTION, MIXELM=0) 
 = 0.1248    (WHEN MIN. R.F.=1)  AT K=   3, I=   2, J=  30
>>>>>>> Stashed changes


 TOTAL NUMBER OF POINT SOURCES/SINKS PRESENT IN THE FLOW MODEL =   240

 MAXIMUM STEPSIZE WHICH MEETS STABILITY CRITERION OF THE SINK & SOURCE TERM
 = 0.1000E+31(WHEN MIN. R.F.=1)  AT K=   0, I=   0, J=   0

 MAXIMUM STEPSIZE WHICH MEETS STABILITY CRITERION OF THE DISPERSION TERM
<<<<<<< Updated upstream
 = 0.6193E-02(WHEN MIN. R.F.=1)  AT K=   3, I=   2, J=  31
     1 CALLS TO GCG PACKAGE FOR TRANSPORT TIME STEP   4 IN FLOW TIME STEP  99 STRESS PERIOD   2
    10 TOTAL ITERATIONS
=======
 = 0.6694E-02(WHEN MIN. R.F.=1)  AT K=   3, I=   2, J=  30
     1 CALLS TO GCG PACKAGE FOR TRANSPORT TIME STEP   2 IN FLOW TIME STEP  99 STRESS PERIOD   2
    12 TOTAL ITERATIONS
>>>>>>> Stashed changes
 
 SOLVING FOR HEAD 
 FLOW MODEL IS TRANSIENT
 FLOW MODEL CONTAINS CONSTANT-HEAD CELLS


 MAXIMUM STEPSIZE DURING WHICH ANY PARTICLE CANNOT MOVE MORE THAN ONE CELL
<<<<<<< Updated upstream
 = 0.1632    (WHEN MIN. R.F.=1)  AT K=   3, I=   2, J=  29

 MAXIMUM STEPSIZE WHICH MEETS STABILITY CRITERION OF THE ADVECTION TERM
 (FOR PURE FINITE-DIFFERENCE OPTION, MIXELM=0) 
 = 0.1132    (WHEN MIN. R.F.=1)  AT K=   3, I=   2, J=  28
=======
 = 0.1869    (WHEN MIN. R.F.=1)  AT K=   3, I=   2, J=  31

 MAXIMUM STEPSIZE WHICH MEETS STABILITY CRITERION OF THE ADVECTION TERM
 (FOR PURE FINITE-DIFFERENCE OPTION, MIXELM=0) 
 = 0.1248    (WHEN MIN. R.F.=1)  AT K=   3, I=   2, J=  30
>>>>>>> Stashed changes


 TOTAL NUMBER OF POINT SOURCES/SINKS PRESENT IN THE FLOW MODEL =   240

 MAXIMUM STEPSIZE WHICH MEETS STABILITY CRITERION OF THE SINK & SOURCE TERM
 = 0.1000E+31(WHEN MIN. R.F.=1)  AT K=   0, I=   0, J=   0

 MAXIMUM STEPSIZE WHICH MEETS STABILITY CRITERION OF THE DISPERSION TERM
<<<<<<< Updated upstream
 = 0.6193E-02(WHEN MIN. R.F.=1)  AT K=   3, I=   2, J=  31
     1 CALLS TO GCG PACKAGE FOR TRANSPORT TIME STEP   5 IN FLOW TIME STEP  99 STRESS PERIOD   2
    10 TOTAL ITERATIONS
=======
 = 0.6694E-02(WHEN MIN. R.F.=1)  AT K=   3, I=   2, J=  30
     1 CALLS TO GCG PACKAGE FOR TRANSPORT TIME STEP   3 IN FLOW TIME STEP  99 STRESS PERIOD   2
    12 TOTAL ITERATIONS
>>>>>>> Stashed changes
 
 SOLVING FOR HEAD 
 FLOW MODEL IS TRANSIENT
 FLOW MODEL CONTAINS CONSTANT-HEAD CELLS


 MAXIMUM STEPSIZE DURING WHICH ANY PARTICLE CANNOT MOVE MORE THAN ONE CELL
<<<<<<< Updated upstream
 = 0.1632    (WHEN MIN. R.F.=1)  AT K=   3, I=   2, J=  29

 MAXIMUM STEPSIZE WHICH MEETS STABILITY CRITERION OF THE ADVECTION TERM
 (FOR PURE FINITE-DIFFERENCE OPTION, MIXELM=0) 
 = 0.1132    (WHEN MIN. R.F.=1)  AT K=   3, I=   2, J=  28
=======
 = 0.1869    (WHEN MIN. R.F.=1)  AT K=   3, I=   2, J=  31

 MAXIMUM STEPSIZE WHICH MEETS STABILITY CRITERION OF THE ADVECTION TERM
 (FOR PURE FINITE-DIFFERENCE OPTION, MIXELM=0) 
 = 0.1248    (WHEN MIN. R.F.=1)  AT K=   3, I=   2, J=  30
>>>>>>> Stashed changes


 TOTAL NUMBER OF POINT SOURCES/SINKS PRESENT IN THE FLOW MODEL =   240

 MAXIMUM STEPSIZE WHICH MEETS STABILITY CRITERION OF THE SINK & SOURCE TERM
 = 0.1000E+31(WHEN MIN. R.F.=1)  AT K=   0, I=   0, J=   0

 MAXIMUM STEPSIZE WHICH MEETS STABILITY CRITERION OF THE DISPERSION TERM
<<<<<<< Updated upstream
 = 0.6193E-02(WHEN MIN. R.F.=1)  AT K=   3, I=   2, J=  31
     1 CALLS TO GCG PACKAGE FOR TRANSPORT TIME STEP   6 IN FLOW TIME STEP  99 STRESS PERIOD   2
    10 TOTAL ITERATIONS
=======
 = 0.6694E-02(WHEN MIN. R.F.=1)  AT K=   3, I=   2, J=  30
     1 CALLS TO GCG PACKAGE FOR TRANSPORT TIME STEP   4 IN FLOW TIME STEP  99 STRESS PERIOD   2
    12 TOTAL ITERATIONS
>>>>>>> Stashed changes
 
 SOLVING FOR HEAD 
 FLOW MODEL IS TRANSIENT
 FLOW MODEL CONTAINS CONSTANT-HEAD CELLS


 MAXIMUM STEPSIZE DURING WHICH ANY PARTICLE CANNOT MOVE MORE THAN ONE CELL
<<<<<<< Updated upstream
 = 0.1632    (WHEN MIN. R.F.=1)  AT K=   3, I=   2, J=  29

 MAXIMUM STEPSIZE WHICH MEETS STABILITY CRITERION OF THE ADVECTION TERM
 (FOR PURE FINITE-DIFFERENCE OPTION, MIXELM=0) 
 = 0.1132    (WHEN MIN. R.F.=1)  AT K=   3, I=   2, J=  28
=======
 = 0.1869    (WHEN MIN. R.F.=1)  AT K=   3, I=   2, J=  31

 MAXIMUM STEPSIZE WHICH MEETS STABILITY CRITERION OF THE ADVECTION TERM
 (FOR PURE FINITE-DIFFERENCE OPTION, MIXELM=0) 
 = 0.1248    (WHEN MIN. R.F.=1)  AT K=   3, I=   2, J=  30
>>>>>>> Stashed changes


 TOTAL NUMBER OF POINT SOURCES/SINKS PRESENT IN THE FLOW MODEL =   240

 MAXIMUM STEPSIZE WHICH MEETS STABILITY CRITERION OF THE SINK & SOURCE TERM
 = 0.1000E+31(WHEN MIN. R.F.=1)  AT K=   0, I=   0, J=   0

 MAXIMUM STEPSIZE WHICH MEETS STABILITY CRITERION OF THE DISPERSION TERM
<<<<<<< Updated upstream
 = 0.6193E-02(WHEN MIN. R.F.=1)  AT K=   3, I=   2, J=  31
     1 CALLS TO GCG PACKAGE FOR TRANSPORT TIME STEP   7 IN FLOW TIME STEP  99 STRESS PERIOD   2
    10 TOTAL ITERATIONS
=======
 = 0.6694E-02(WHEN MIN. R.F.=1)  AT K=   3, I=   2, J=  30
     1 CALLS TO GCG PACKAGE FOR TRANSPORT TIME STEP   5 IN FLOW TIME STEP  99 STRESS PERIOD   2
    12 TOTAL ITERATIONS
>>>>>>> Stashed changes
 
 SOLVING FOR HEAD 
 FLOW MODEL IS TRANSIENT
 FLOW MODEL CONTAINS CONSTANT-HEAD CELLS


 MAXIMUM STEPSIZE DURING WHICH ANY PARTICLE CANNOT MOVE MORE THAN ONE CELL
<<<<<<< Updated upstream
 = 0.1632    (WHEN MIN. R.F.=1)  AT K=   3, I=   2, J=  29

 MAXIMUM STEPSIZE WHICH MEETS STABILITY CRITERION OF THE ADVECTION TERM
 (FOR PURE FINITE-DIFFERENCE OPTION, MIXELM=0) 
 = 0.1132    (WHEN MIN. R.F.=1)  AT K=   3, I=   2, J=  28
=======
 = 0.1869    (WHEN MIN. R.F.=1)  AT K=   3, I=   2, J=  31

 MAXIMUM STEPSIZE WHICH MEETS STABILITY CRITERION OF THE ADVECTION TERM
 (FOR PURE FINITE-DIFFERENCE OPTION, MIXELM=0) 
 = 0.1248    (WHEN MIN. R.F.=1)  AT K=   3, I=   2, J=  30
>>>>>>> Stashed changes


 TOTAL NUMBER OF POINT SOURCES/SINKS PRESENT IN THE FLOW MODEL =   240

 MAXIMUM STEPSIZE WHICH MEETS STABILITY CRITERION OF THE SINK & SOURCE TERM
 = 0.1000E+31(WHEN MIN. R.F.=1)  AT K=   0, I=   0, J=   0

 MAXIMUM STEPSIZE WHICH MEETS STABILITY CRITERION OF THE DISPERSION TERM
<<<<<<< Updated upstream
 = 0.6193E-02(WHEN MIN. R.F.=1)  AT K=   3, I=   2, J=  31
     1 CALLS TO GCG PACKAGE FOR TRANSPORT TIME STEP   8 IN FLOW TIME STEP  99 STRESS PERIOD   2
    10 TOTAL ITERATIONS
=======
 = 0.6694E-02(WHEN MIN. R.F.=1)  AT K=   3, I=   2, J=  30
     1 CALLS TO GCG PACKAGE FOR TRANSPORT TIME STEP   6 IN FLOW TIME STEP  99 STRESS PERIOD   2
    12 TOTAL ITERATIONS
>>>>>>> Stashed changes
 
 SOLVING FOR HEAD 
 FLOW MODEL IS TRANSIENT
 FLOW MODEL CONTAINS CONSTANT-HEAD CELLS


 MAXIMUM STEPSIZE DURING WHICH ANY PARTICLE CANNOT MOVE MORE THAN ONE CELL
<<<<<<< Updated upstream
 = 0.1632    (WHEN MIN. R.F.=1)  AT K=   3, I=   2, J=  29

 MAXIMUM STEPSIZE WHICH MEETS STABILITY CRITERION OF THE ADVECTION TERM
 (FOR PURE FINITE-DIFFERENCE OPTION, MIXELM=0) 
 = 0.1132    (WHEN MIN. R.F.=1)  AT K=   3, I=   2, J=  28
=======
 = 0.1869    (WHEN MIN. R.F.=1)  AT K=   3, I=   2, J=  31

 MAXIMUM STEPSIZE WHICH MEETS STABILITY CRITERION OF THE ADVECTION TERM
 (FOR PURE FINITE-DIFFERENCE OPTION, MIXELM=0) 
 = 0.1248    (WHEN MIN. R.F.=1)  AT K=   3, I=   2, J=  30
>>>>>>> Stashed changes


 TOTAL NUMBER OF POINT SOURCES/SINKS PRESENT IN THE FLOW MODEL =   240

 MAXIMUM STEPSIZE WHICH MEETS STABILITY CRITERION OF THE SINK & SOURCE TERM
 = 0.1000E+31(WHEN MIN. R.F.=1)  AT K=   0, I=   0, J=   0

 MAXIMUM STEPSIZE WHICH MEETS STABILITY CRITERION OF THE DISPERSION TERM
<<<<<<< Updated upstream
 = 0.6193E-02(WHEN MIN. R.F.=1)  AT K=   3, I=   2, J=  31
     1 CALLS TO GCG PACKAGE FOR TRANSPORT TIME STEP   9 IN FLOW TIME STEP  99 STRESS PERIOD   2
     4 TOTAL ITERATIONS
  MAXIMUM CONCENTRATION CHANGES FOR EACH ITERATION:
  MAX. CHANGE LAYER,ROW,COL MAX. CHANGE LAYER,ROW,COL MAX. CHANGE LAYER,ROW,COL MAX. CHANGE LAYER,ROW,COL MAX. CHANGE LAYER,ROW,COL
 ------------------------------------------------------------------------------------------------------------------------------------
   0.1333E-03 ( 13,  3, 55)  0.2941E-05 (  5,  2, 65)  0.4790E-06 (  6,  1, 56)  0.6169E-07 (  6,  1, 54)


                                          ================================================
                                                         FROM TIME =  100.000     TO    101.00    

=======
 = 0.6694E-02(WHEN MIN. R.F.=1)  AT K=   3, I=   2, J=  30
     1 CALLS TO GCG PACKAGE FOR TRANSPORT TIME STEP   7 IN FLOW TIME STEP  99 STRESS PERIOD   2
    12 TOTAL ITERATIONS
>>>>>>> Stashed changes
 
 SOLVING FOR HEAD 
 FLOW MODEL IS TRANSIENT
 FLOW MODEL CONTAINS CONSTANT-HEAD CELLS


 MAXIMUM STEPSIZE DURING WHICH ANY PARTICLE CANNOT MOVE MORE THAN ONE CELL
<<<<<<< Updated upstream
 = 0.1632    (WHEN MIN. R.F.=1)  AT K=   3, I=   2, J=  29

 MAXIMUM STEPSIZE WHICH MEETS STABILITY CRITERION OF THE ADVECTION TERM
 (FOR PURE FINITE-DIFFERENCE OPTION, MIXELM=0) 
 = 0.1132    (WHEN MIN. R.F.=1)  AT K=   3, I=   2, J=  28
=======
 = 0.1869    (WHEN MIN. R.F.=1)  AT K=   3, I=   2, J=  31

 MAXIMUM STEPSIZE WHICH MEETS STABILITY CRITERION OF THE ADVECTION TERM
 (FOR PURE FINITE-DIFFERENCE OPTION, MIXELM=0) 
 = 0.1248    (WHEN MIN. R.F.=1)  AT K=   3, I=   2, J=  30
>>>>>>> Stashed changes


 TOTAL NUMBER OF POINT SOURCES/SINKS PRESENT IN THE FLOW MODEL =   240

 MAXIMUM STEPSIZE WHICH MEETS STABILITY CRITERION OF THE SINK & SOURCE TERM
 = 0.1000E+31(WHEN MIN. R.F.=1)  AT K=   0, I=   0, J=   0

 MAXIMUM STEPSIZE WHICH MEETS STABILITY CRITERION OF THE DISPERSION TERM
<<<<<<< Updated upstream
 = 0.6193E-02(WHEN MIN. R.F.=1)  AT K=   3, I=   2, J=  31


     1 CALLS TO GCG PACKAGE FOR TRANSPORT TIME STEP   1 IN FLOW TIME STEP 100 STRESS PERIOD   2
    10 TOTAL ITERATIONS

 NO OUTPUT CONTROL FOR STRESS PERIOD    2   TIME STEP 100
=======
 = 0.6694E-02(WHEN MIN. R.F.=1)  AT K=   3, I=   2, J=  30
     1 CALLS TO GCG PACKAGE FOR TRANSPORT TIME STEP   8 IN FLOW TIME STEP  99 STRESS PERIOD   2
     4 TOTAL ITERATIONS
  MAXIMUM CONCENTRATION CHANGES FOR EACH ITERATION:
  MAX. CHANGE LAYER,ROW,COL MAX. CHANGE LAYER,ROW,COL MAX. CHANGE LAYER,ROW,COL MAX. CHANGE LAYER,ROW,COL MAX. CHANGE LAYER,ROW,COL
 ------------------------------------------------------------------------------------------------------------------------------------
   0.7869E-04 ( 14,  2, 57)  0.1766E-05 (  5,  2, 64)  0.2886E-06 (  4,  2, 56)  0.5373E-07 (  3,  2, 44)
 UBDSV1 SAVING "         STORAGE" ON UNIT  53 AT TIME STEP 99, STRESS PERIOD   2
 UBDSV2 SAVING "   CONSTANT HEAD" ON UNIT  53 AT TIME STEP 99, STRESS PERIOD   2
 UBDSV1 SAVING "FLOW RIGHT FACE " ON UNIT  53 AT TIME STEP 99, STRESS PERIOD   2
 UBDSV1 SAVING "FLOW FRONT FACE " ON UNIT  53 AT TIME STEP 99, STRESS PERIOD   2
 UBDSV1 SAVING "FLOW LOWER FACE " ON UNIT  53 AT TIME STEP 99, STRESS PERIOD   2
 UBDSV1 SAVING "            DCDT" ON UNIT  53 AT TIME STEP 99, STRESS PERIOD   2

 HEAD WILL BE SAVED ON UNIT   51 AT END OF TIME STEP  99, STRESS PERIOD    2


                                          ================================================
                                                         FROM TIME =   100.00     TO    101.00    

>>>>>>> Stashed changes
 
 SOLVING FOR HEAD 
 FLOW MODEL IS TRANSIENT
 FLOW MODEL CONTAINS CONSTANT-HEAD CELLS


 MAXIMUM STEPSIZE DURING WHICH ANY PARTICLE CANNOT MOVE MORE THAN ONE CELL
<<<<<<< Updated upstream
 = 0.1632    (WHEN MIN. R.F.=1)  AT K=   3, I=   2, J=  29

 MAXIMUM STEPSIZE WHICH MEETS STABILITY CRITERION OF THE ADVECTION TERM
 (FOR PURE FINITE-DIFFERENCE OPTION, MIXELM=0) 
 = 0.1132    (WHEN MIN. R.F.=1)  AT K=   3, I=   2, J=  28
=======
 = 0.1869    (WHEN MIN. R.F.=1)  AT K=   3, I=   2, J=  31

 MAXIMUM STEPSIZE WHICH MEETS STABILITY CRITERION OF THE ADVECTION TERM
 (FOR PURE FINITE-DIFFERENCE OPTION, MIXELM=0) 
 = 0.1248    (WHEN MIN. R.F.=1)  AT K=   3, I=   2, J=  30
>>>>>>> Stashed changes


 TOTAL NUMBER OF POINT SOURCES/SINKS PRESENT IN THE FLOW MODEL =   240

 MAXIMUM STEPSIZE WHICH MEETS STABILITY CRITERION OF THE SINK & SOURCE TERM
 = 0.1000E+31(WHEN MIN. R.F.=1)  AT K=   0, I=   0, J=   0

 MAXIMUM STEPSIZE WHICH MEETS STABILITY CRITERION OF THE DISPERSION TERM
<<<<<<< Updated upstream
 = 0.6193E-02(WHEN MIN. R.F.=1)  AT K=   3, I=   2, J=  31
     1 CALLS TO GCG PACKAGE FOR TRANSPORT TIME STEP   2 IN FLOW TIME STEP 100 STRESS PERIOD   2
     9 TOTAL ITERATIONS
=======
 = 0.6694E-02(WHEN MIN. R.F.=1)  AT K=   3, I=   2, J=  30


     1 CALLS TO GCG PACKAGE FOR TRANSPORT TIME STEP   1 IN FLOW TIME STEP 100 STRESS PERIOD   2
    12 TOTAL ITERATIONS

 OUTPUT CONTROL FOR STRESS PERIOD    2   TIME STEP 100
    SAVE HEAD FOR ALL LAYERS
    SAVE BUDGET
>>>>>>> Stashed changes
 
 SOLVING FOR HEAD 
 FLOW MODEL IS TRANSIENT
 FLOW MODEL CONTAINS CONSTANT-HEAD CELLS


 MAXIMUM STEPSIZE DURING WHICH ANY PARTICLE CANNOT MOVE MORE THAN ONE CELL
<<<<<<< Updated upstream
 = 0.1632    (WHEN MIN. R.F.=1)  AT K=   3, I=   2, J=  29

 MAXIMUM STEPSIZE WHICH MEETS STABILITY CRITERION OF THE ADVECTION TERM
 (FOR PURE FINITE-DIFFERENCE OPTION, MIXELM=0) 
 = 0.1132    (WHEN MIN. R.F.=1)  AT K=   3, I=   2, J=  28
=======
 = 0.1869    (WHEN MIN. R.F.=1)  AT K=   3, I=   2, J=  31

 MAXIMUM STEPSIZE WHICH MEETS STABILITY CRITERION OF THE ADVECTION TERM
 (FOR PURE FINITE-DIFFERENCE OPTION, MIXELM=0) 
 = 0.1248    (WHEN MIN. R.F.=1)  AT K=   3, I=   2, J=  30
>>>>>>> Stashed changes


 TOTAL NUMBER OF POINT SOURCES/SINKS PRESENT IN THE FLOW MODEL =   240

 MAXIMUM STEPSIZE WHICH MEETS STABILITY CRITERION OF THE SINK & SOURCE TERM
 = 0.1000E+31(WHEN MIN. R.F.=1)  AT K=   0, I=   0, J=   0

 MAXIMUM STEPSIZE WHICH MEETS STABILITY CRITERION OF THE DISPERSION TERM
<<<<<<< Updated upstream
 = 0.6193E-02(WHEN MIN. R.F.=1)  AT K=   3, I=   2, J=  31
     1 CALLS TO GCG PACKAGE FOR TRANSPORT TIME STEP   3 IN FLOW TIME STEP 100 STRESS PERIOD   2
    10 TOTAL ITERATIONS
=======
 = 0.6694E-02(WHEN MIN. R.F.=1)  AT K=   3, I=   2, J=  30
     1 CALLS TO GCG PACKAGE FOR TRANSPORT TIME STEP   2 IN FLOW TIME STEP 100 STRESS PERIOD   2
    12 TOTAL ITERATIONS
>>>>>>> Stashed changes
 
 SOLVING FOR HEAD 
 FLOW MODEL IS TRANSIENT
 FLOW MODEL CONTAINS CONSTANT-HEAD CELLS


 MAXIMUM STEPSIZE DURING WHICH ANY PARTICLE CANNOT MOVE MORE THAN ONE CELL
<<<<<<< Updated upstream
 = 0.1632    (WHEN MIN. R.F.=1)  AT K=   3, I=   2, J=  29

 MAXIMUM STEPSIZE WHICH MEETS STABILITY CRITERION OF THE ADVECTION TERM
 (FOR PURE FINITE-DIFFERENCE OPTION, MIXELM=0) 
 = 0.1132    (WHEN MIN. R.F.=1)  AT K=   3, I=   2, J=  28
=======
 = 0.1869    (WHEN MIN. R.F.=1)  AT K=   3, I=   2, J=  31

 MAXIMUM STEPSIZE WHICH MEETS STABILITY CRITERION OF THE ADVECTION TERM
 (FOR PURE FINITE-DIFFERENCE OPTION, MIXELM=0) 
 = 0.1248    (WHEN MIN. R.F.=1)  AT K=   3, I=   2, J=  30
>>>>>>> Stashed changes


 TOTAL NUMBER OF POINT SOURCES/SINKS PRESENT IN THE FLOW MODEL =   240

 MAXIMUM STEPSIZE WHICH MEETS STABILITY CRITERION OF THE SINK & SOURCE TERM
 = 0.1000E+31(WHEN MIN. R.F.=1)  AT K=   0, I=   0, J=   0

 MAXIMUM STEPSIZE WHICH MEETS STABILITY CRITERION OF THE DISPERSION TERM
<<<<<<< Updated upstream
 = 0.6193E-02(WHEN MIN. R.F.=1)  AT K=   3, I=   2, J=  31
     1 CALLS TO GCG PACKAGE FOR TRANSPORT TIME STEP   4 IN FLOW TIME STEP 100 STRESS PERIOD   2
    10 TOTAL ITERATIONS
=======
 = 0.6694E-02(WHEN MIN. R.F.=1)  AT K=   3, I=   2, J=  30
     1 CALLS TO GCG PACKAGE FOR TRANSPORT TIME STEP   3 IN FLOW TIME STEP 100 STRESS PERIOD   2
    12 TOTAL ITERATIONS
>>>>>>> Stashed changes
 
 SOLVING FOR HEAD 
 FLOW MODEL IS TRANSIENT
 FLOW MODEL CONTAINS CONSTANT-HEAD CELLS


 MAXIMUM STEPSIZE DURING WHICH ANY PARTICLE CANNOT MOVE MORE THAN ONE CELL
<<<<<<< Updated upstream
 = 0.1632    (WHEN MIN. R.F.=1)  AT K=   3, I=   2, J=  29

 MAXIMUM STEPSIZE WHICH MEETS STABILITY CRITERION OF THE ADVECTION TERM
 (FOR PURE FINITE-DIFFERENCE OPTION, MIXELM=0) 
 = 0.1132    (WHEN MIN. R.F.=1)  AT K=   3, I=   2, J=  28
=======
 = 0.1869    (WHEN MIN. R.F.=1)  AT K=   3, I=   2, J=  31

 MAXIMUM STEPSIZE WHICH MEETS STABILITY CRITERION OF THE ADVECTION TERM
 (FOR PURE FINITE-DIFFERENCE OPTION, MIXELM=0) 
 = 0.1248    (WHEN MIN. R.F.=1)  AT K=   3, I=   2, J=  30
>>>>>>> Stashed changes


 TOTAL NUMBER OF POINT SOURCES/SINKS PRESENT IN THE FLOW MODEL =   240

 MAXIMUM STEPSIZE WHICH MEETS STABILITY CRITERION OF THE SINK & SOURCE TERM
 = 0.1000E+31(WHEN MIN. R.F.=1)  AT K=   0, I=   0, J=   0

 MAXIMUM STEPSIZE WHICH MEETS STABILITY CRITERION OF THE DISPERSION TERM
<<<<<<< Updated upstream
 = 0.6193E-02(WHEN MIN. R.F.=1)  AT K=   3, I=   2, J=  31
     1 CALLS TO GCG PACKAGE FOR TRANSPORT TIME STEP   5 IN FLOW TIME STEP 100 STRESS PERIOD   2
    10 TOTAL ITERATIONS
=======
 = 0.6694E-02(WHEN MIN. R.F.=1)  AT K=   3, I=   2, J=  30
     1 CALLS TO GCG PACKAGE FOR TRANSPORT TIME STEP   4 IN FLOW TIME STEP 100 STRESS PERIOD   2
    12 TOTAL ITERATIONS
>>>>>>> Stashed changes
 
 SOLVING FOR HEAD 
 FLOW MODEL IS TRANSIENT
 FLOW MODEL CONTAINS CONSTANT-HEAD CELLS


 MAXIMUM STEPSIZE DURING WHICH ANY PARTICLE CANNOT MOVE MORE THAN ONE CELL
<<<<<<< Updated upstream
 = 0.1632    (WHEN MIN. R.F.=1)  AT K=   3, I=   2, J=  29

 MAXIMUM STEPSIZE WHICH MEETS STABILITY CRITERION OF THE ADVECTION TERM
 (FOR PURE FINITE-DIFFERENCE OPTION, MIXELM=0) 
 = 0.1132    (WHEN MIN. R.F.=1)  AT K=   3, I=   2, J=  28
=======
 = 0.1869    (WHEN MIN. R.F.=1)  AT K=   3, I=   2, J=  31

 MAXIMUM STEPSIZE WHICH MEETS STABILITY CRITERION OF THE ADVECTION TERM
 (FOR PURE FINITE-DIFFERENCE OPTION, MIXELM=0) 
 = 0.1248    (WHEN MIN. R.F.=1)  AT K=   3, I=   2, J=  30
>>>>>>> Stashed changes


 TOTAL NUMBER OF POINT SOURCES/SINKS PRESENT IN THE FLOW MODEL =   240

 MAXIMUM STEPSIZE WHICH MEETS STABILITY CRITERION OF THE SINK & SOURCE TERM
 = 0.1000E+31(WHEN MIN. R.F.=1)  AT K=   0, I=   0, J=   0

 MAXIMUM STEPSIZE WHICH MEETS STABILITY CRITERION OF THE DISPERSION TERM
<<<<<<< Updated upstream
 = 0.6193E-02(WHEN MIN. R.F.=1)  AT K=   3, I=   2, J=  31
     1 CALLS TO GCG PACKAGE FOR TRANSPORT TIME STEP   6 IN FLOW TIME STEP 100 STRESS PERIOD   2
    10 TOTAL ITERATIONS
=======
 = 0.6694E-02(WHEN MIN. R.F.=1)  AT K=   3, I=   2, J=  30
     1 CALLS TO GCG PACKAGE FOR TRANSPORT TIME STEP   5 IN FLOW TIME STEP 100 STRESS PERIOD   2
    12 TOTAL ITERATIONS
>>>>>>> Stashed changes
 
 SOLVING FOR HEAD 
 FLOW MODEL IS TRANSIENT
 FLOW MODEL CONTAINS CONSTANT-HEAD CELLS


 MAXIMUM STEPSIZE DURING WHICH ANY PARTICLE CANNOT MOVE MORE THAN ONE CELL
<<<<<<< Updated upstream
 = 0.1632    (WHEN MIN. R.F.=1)  AT K=   3, I=   2, J=  29

 MAXIMUM STEPSIZE WHICH MEETS STABILITY CRITERION OF THE ADVECTION TERM
 (FOR PURE FINITE-DIFFERENCE OPTION, MIXELM=0) 
 = 0.1132    (WHEN MIN. R.F.=1)  AT K=   3, I=   2, J=  28
=======
 = 0.1869    (WHEN MIN. R.F.=1)  AT K=   3, I=   2, J=  31

 MAXIMUM STEPSIZE WHICH MEETS STABILITY CRITERION OF THE ADVECTION TERM
 (FOR PURE FINITE-DIFFERENCE OPTION, MIXELM=0) 
 = 0.1248    (WHEN MIN. R.F.=1)  AT K=   3, I=   2, J=  30
>>>>>>> Stashed changes


 TOTAL NUMBER OF POINT SOURCES/SINKS PRESENT IN THE FLOW MODEL =   240

 MAXIMUM STEPSIZE WHICH MEETS STABILITY CRITERION OF THE SINK & SOURCE TERM
 = 0.1000E+31(WHEN MIN. R.F.=1)  AT K=   0, I=   0, J=   0

 MAXIMUM STEPSIZE WHICH MEETS STABILITY CRITERION OF THE DISPERSION TERM
<<<<<<< Updated upstream
 = 0.6193E-02(WHEN MIN. R.F.=1)  AT K=   3, I=   2, J=  31
     1 CALLS TO GCG PACKAGE FOR TRANSPORT TIME STEP   7 IN FLOW TIME STEP 100 STRESS PERIOD   2
    10 TOTAL ITERATIONS
=======
 = 0.6694E-02(WHEN MIN. R.F.=1)  AT K=   3, I=   2, J=  30
     1 CALLS TO GCG PACKAGE FOR TRANSPORT TIME STEP   6 IN FLOW TIME STEP 100 STRESS PERIOD   2
    12 TOTAL ITERATIONS
>>>>>>> Stashed changes
 
 SOLVING FOR HEAD 
 FLOW MODEL IS TRANSIENT
 FLOW MODEL CONTAINS CONSTANT-HEAD CELLS


 MAXIMUM STEPSIZE DURING WHICH ANY PARTICLE CANNOT MOVE MORE THAN ONE CELL
<<<<<<< Updated upstream
 = 0.1632    (WHEN MIN. R.F.=1)  AT K=   3, I=   2, J=  29

 MAXIMUM STEPSIZE WHICH MEETS STABILITY CRITERION OF THE ADVECTION TERM
 (FOR PURE FINITE-DIFFERENCE OPTION, MIXELM=0) 
 = 0.1132    (WHEN MIN. R.F.=1)  AT K=   3, I=   2, J=  28
=======
 = 0.1869    (WHEN MIN. R.F.=1)  AT K=   3, I=   2, J=  31

 MAXIMUM STEPSIZE WHICH MEETS STABILITY CRITERION OF THE ADVECTION TERM
 (FOR PURE FINITE-DIFFERENCE OPTION, MIXELM=0) 
 = 0.1248    (WHEN MIN. R.F.=1)  AT K=   3, I=   2, J=  30
>>>>>>> Stashed changes


 TOTAL NUMBER OF POINT SOURCES/SINKS PRESENT IN THE FLOW MODEL =   240

 MAXIMUM STEPSIZE WHICH MEETS STABILITY CRITERION OF THE SINK & SOURCE TERM
 = 0.1000E+31(WHEN MIN. R.F.=1)  AT K=   0, I=   0, J=   0

 MAXIMUM STEPSIZE WHICH MEETS STABILITY CRITERION OF THE DISPERSION TERM
<<<<<<< Updated upstream
 = 0.6193E-02(WHEN MIN. R.F.=1)  AT K=   3, I=   2, J=  31
     1 CALLS TO GCG PACKAGE FOR TRANSPORT TIME STEP   8 IN FLOW TIME STEP 100 STRESS PERIOD   2
     9 TOTAL ITERATIONS
=======
 = 0.6694E-02(WHEN MIN. R.F.=1)  AT K=   3, I=   2, J=  30
     1 CALLS TO GCG PACKAGE FOR TRANSPORT TIME STEP   7 IN FLOW TIME STEP 100 STRESS PERIOD   2
    12 TOTAL ITERATIONS
>>>>>>> Stashed changes
 
 SOLVING FOR HEAD 
 FLOW MODEL IS TRANSIENT
 FLOW MODEL CONTAINS CONSTANT-HEAD CELLS


 MAXIMUM STEPSIZE DURING WHICH ANY PARTICLE CANNOT MOVE MORE THAN ONE CELL
<<<<<<< Updated upstream
 = 0.1632    (WHEN MIN. R.F.=1)  AT K=   3, I=   2, J=  29

 MAXIMUM STEPSIZE WHICH MEETS STABILITY CRITERION OF THE ADVECTION TERM
 (FOR PURE FINITE-DIFFERENCE OPTION, MIXELM=0) 
 = 0.1132    (WHEN MIN. R.F.=1)  AT K=   3, I=   2, J=  28
=======
 = 0.1869    (WHEN MIN. R.F.=1)  AT K=   3, I=   2, J=  31

 MAXIMUM STEPSIZE WHICH MEETS STABILITY CRITERION OF THE ADVECTION TERM
 (FOR PURE FINITE-DIFFERENCE OPTION, MIXELM=0) 
 = 0.1248    (WHEN MIN. R.F.=1)  AT K=   3, I=   2, J=  30
>>>>>>> Stashed changes


 TOTAL NUMBER OF POINT SOURCES/SINKS PRESENT IN THE FLOW MODEL =   240

 MAXIMUM STEPSIZE WHICH MEETS STABILITY CRITERION OF THE SINK & SOURCE TERM
 = 0.1000E+31(WHEN MIN. R.F.=1)  AT K=   0, I=   0, J=   0

 MAXIMUM STEPSIZE WHICH MEETS STABILITY CRITERION OF THE DISPERSION TERM
<<<<<<< Updated upstream
 = 0.6193E-02(WHEN MIN. R.F.=1)  AT K=   3, I=   2, J=  31
     1 CALLS TO GCG PACKAGE FOR TRANSPORT TIME STEP   9 IN FLOW TIME STEP 100 STRESS PERIOD   2
=======
 = 0.6694E-02(WHEN MIN. R.F.=1)  AT K=   3, I=   2, J=  30
     1 CALLS TO GCG PACKAGE FOR TRANSPORT TIME STEP   8 IN FLOW TIME STEP 100 STRESS PERIOD   2
>>>>>>> Stashed changes
     4 TOTAL ITERATIONS
  MAXIMUM CONCENTRATION CHANGES FOR EACH ITERATION:
  MAX. CHANGE LAYER,ROW,COL MAX. CHANGE LAYER,ROW,COL MAX. CHANGE LAYER,ROW,COL MAX. CHANGE LAYER,ROW,COL MAX. CHANGE LAYER,ROW,COL
 ------------------------------------------------------------------------------------------------------------------------------------
<<<<<<< Updated upstream
   0.1317E-03 ( 13,  3, 55)  0.2882E-05 (  5,  2, 65)  0.4660E-06 (  6,  1, 56)  0.5966E-07 (  6,  1, 54)
=======
   0.7769E-04 ( 14,  2, 57)  0.1731E-05 (  5,  2, 64)  0.2817E-06 (  4,  2, 56)  0.4685E-07 (  3,  2, 43)
 UBDSV1 SAVING "         STORAGE" ON UNIT  53 AT TIME STEP100, STRESS PERIOD   2
 UBDSV2 SAVING "   CONSTANT HEAD" ON UNIT  53 AT TIME STEP100, STRESS PERIOD   2
 UBDSV1 SAVING "FLOW RIGHT FACE " ON UNIT  53 AT TIME STEP100, STRESS PERIOD   2
 UBDSV1 SAVING "FLOW FRONT FACE " ON UNIT  53 AT TIME STEP100, STRESS PERIOD   2
 UBDSV1 SAVING "FLOW LOWER FACE " ON UNIT  53 AT TIME STEP100, STRESS PERIOD   2
 UBDSV1 SAVING "            DCDT" ON UNIT  53 AT TIME STEP100, STRESS PERIOD   2
>>>>>>> Stashed changes



 >>>>>>>>>>>>>>>>>>>>>>>>>>>>>>>>>>>>>>>>>>>>>>>>>>>>>>>FOR COMPONENT NO. 01<<<<<<<<<<<<<<<<<<<<<<<<<<<<<<<<<<<<<<<<<<<<<<<<<<<<<<<


                                            -------------------------------------------
<<<<<<< Updated upstream
                                                      TRANSPORT STEP NO.    9
=======
                                                      TRANSPORT STEP NO.    8
>>>>>>> Stashed changes
                                            -------------------------------------------

 TOTAL ELAPSED TIME SINCE BEGINNING OF SIMULATION =   101.0000    D   
 .....................................................................

<<<<<<< Updated upstream
                     CUMULATIVE MASS BUDGETS AT END OF TRANSPORT STEP    9, TIME STEP  100, STRESS PERIOD    2
=======
                     CUMULATIVE MASS BUDGETS AT END OF TRANSPORT STEP    8, TIME STEP  100, STRESS PERIOD    2
>>>>>>> Stashed changes
                     ------------------------------------------------------------------------------------------

                                                             IN                           OUT
                                                      ----------------             ----------------
<<<<<<< Updated upstream
                               CONSTANT CONCENTRATION:    14144.15                   -9038.558    
                                        CONSTANT HEAD:    0.000000                    0.000000    
                               MASS STOR (FLOW MODEL):   0.1445907E-01              -0.3353361E-02
                                MASS STORAGE (SOLUTE):    11.80281                   -5117.407    
                            ---------------------------------------------------------------------------
                                              [TOTAL]:    14155.97     KG            -14155.97     KG  

                                                          NET (IN - OUT):  -0.4460801E-03
                                                   DISCREPANCY (PERCENT):  -0.3151181E-05
=======
                               CONSTANT CONCENTRATION:    13980.74                   -8815.790    
                                        CONSTANT HEAD:    0.000000                    0.000000    
                               MASS STOR (FLOW MODEL):   0.1336796E-01              -0.3292767E-02
                                MASS STORAGE (SOLUTE):    10.23752                   -5175.199    
                            ---------------------------------------------------------------------------
                                              [TOTAL]:    13990.99     KG            -13990.99     KG  

                                                          NET (IN - OUT):   0.8418814E-03
                                                   DISCREPANCY (PERCENT):   0.6017310E-05

 HEAD WILL BE SAVED ON UNIT   51 AT END OF TIME STEP 100, STRESS PERIOD    2
>>>>>>> Stashed changes
1
  MASS BUDGET FOR ENTIRE MODEL AT END OF TIME STEP100 IN STRESS PERIOD   2
  ------------------------------------------------------------------------------

     CUMULATIVE MASS      M       RATES FOR THIS TIME STEP      M/T
     ------------------                 ------------------------

           IN:                                      IN:
           ---                                      ---
<<<<<<< Updated upstream
             STORAGE =           5.7203               STORAGE =       2.7861E-03
       CONSTANT HEAD =      311064.0948         CONSTANT HEAD =        3094.0471
                DCDT =           8.4649                  DCDT =       3.1621E-02

            TOTAL IN =      311078.2800              TOTAL IN =        3094.0815

          OUT:                                     OUT:
          ----                                     ----
             STORAGE =           0.6782               STORAGE =       4.4429E-03
       CONSTANT HEAD =      307634.6961         CONSTANT HEAD =        3087.0345
                DCDT =        3442.8988                  DCDT =           7.0425

           TOTAL OUT =      311078.2731             TOTAL OUT =        3094.0815

            IN - OUT =       6.9178E-03              IN - OUT =       1.9585E-05
=======
             STORAGE =           5.9184               STORAGE =       3.6660E-03
       CONSTANT HEAD =      302006.2120         CONSTANT HEAD =        2999.1428
                DCDT =           7.3515                  DCDT =       2.0098E-02

            TOTAL IN =      302019.4818              TOTAL IN =        2999.1666

          OUT:                                     OUT:
          ----                                     ----
             STORAGE =           0.6733               STORAGE =       5.7080E-03
       CONSTANT HEAD =      298545.0561         CONSTANT HEAD =        2992.1464
                DCDT =        3473.7453                  DCDT =           7.0145

           TOTAL OUT =      302019.4747             TOTAL OUT =        2999.1666

            IN - OUT =       7.0682E-03              IN - OUT =       2.1018E-05
>>>>>>> Stashed changes

 PERCENT DISCREPANCY =           0.00     PERCENT DISCREPANCY =           0.00



0


<<<<<<< Updated upstream
          TIME SUMMARY AT END OF TRANSPORT STEP    9 IN TIME STEP  100 IN STRESS PERIOD   2
                    SECONDS     MINUTES      HOURS       DAYS        YEARS
                    -----------------------------------------------------------
  TRANS STEP LENGTH  1798.8      29.981     0.49968     2.08200E-02 5.70020E-05
   TIME STEP LENGTH  86400.      1440.0      24.000     1.00000     2.73785E-03
 STRESS PERIOD TIME 8.64000E+06 1.44000E+05  2400.0     100.000     0.27379    
=======
          TIME SUMMARY AT END OF TRANSPORT STEP    8 IN TIME STEP  100 IN STRESS PERIOD   2
                    SECONDS     MINUTES      HOURS       DAYS        YEARS
                    -----------------------------------------------------------
  TRANS STEP LENGTH  1639.1      27.318     0.45529     1.89706E-02 5.19386E-05
   TIME STEP LENGTH  86400.      1440.0      24.000      1.0000     2.73785E-03
 STRESS PERIOD TIME 8.64000E+06 1.44000E+05  2400.0      100.00     0.27379    
>>>>>>> Stashed changes
         TOTAL TIME 8.72640E+06 1.45440E+05  2424.0      101.00     0.27652    
1
