                                  SEAWAT Version 4
      U.S. GEOLOGICAL SURVEY MODULAR FINITE-DIFFERENCE GROUND-WATER FLOW MODEL
                           VERSION 4.00.05 10/19/2012


 This model run combines GLOBAL and LIST output into this single file.

 GLOBAL LISTING FILE: test.list
                         UNIT    2

 OPENING test.dis
 FILE TYPE:DIS   UNIT   11   STATUS:OLD    
 FORMAT:FORMATTED              ACCESS:SEQUENTIAL          

 OPENING test.bas
 FILE TYPE:BAS6   UNIT   13   STATUS:OLD    
 FORMAT:FORMATTED              ACCESS:SEQUENTIAL          

 OPENING test.lpf
 FILE TYPE:LPF   UNIT   15   STATUS:OLD    
 FORMAT:FORMATTED              ACCESS:SEQUENTIAL          

 OPENING test.pcg
 FILE TYPE:PCG   UNIT   27   STATUS:OLD    
 FORMAT:FORMATTED              ACCESS:SEQUENTIAL          

 OPENING test.oc
 FILE TYPE:OC   UNIT   14   STATUS:OLD    
 FORMAT:FORMATTED              ACCESS:SEQUENTIAL          

 OPENING test.btn
 FILE TYPE:BTN   UNIT   31   STATUS:OLD    
 FORMAT:FORMATTED              ACCESS:SEQUENTIAL          

 OPENING test.adv
 FILE TYPE:ADV   UNIT   32   STATUS:OLD    
 FORMAT:FORMATTED              ACCESS:SEQUENTIAL          

 OPENING test.dsp
 FILE TYPE:DSP   UNIT   33   STATUS:OLD    
 FORMAT:FORMATTED              ACCESS:SEQUENTIAL          

 OPENING test.gcg
 FILE TYPE:GCG   UNIT   35   STATUS:OLD    
 FORMAT:FORMATTED              ACCESS:SEQUENTIAL          

 OPENING test.ssm
 FILE TYPE:SSM   UNIT   34   STATUS:OLD    
 FORMAT:FORMATTED              ACCESS:SEQUENTIAL          

 OPENING test.chd
 FILE TYPE:CHD   UNIT   24   STATUS:OLD    
 FORMAT:FORMATTED              ACCESS:SEQUENTIAL          

 OPENING test.vdf
 FILE TYPE:VDF   UNIT   37   STATUS:OLD    
 FORMAT:FORMATTED              ACCESS:SEQUENTIAL          

 OPENING test.cbc
 FILE TYPE:DATA(BINARY)   UNIT   53   STATUS:REPLACE
 FORMAT:BINARY                 ACCESS:SEQUENTIAL          

 OPENING test.hds
 FILE TYPE:DATA(BINARY)   UNIT   51   STATUS:REPLACE
 FORMAT:BINARY                 ACCESS:SEQUENTIAL          

 THE FREE FORMAT OPTION HAS BEEN SELECTED

 DISCRETIZATION INPUT DATA READ FROM UNIT   11
 # DIS package for  SEAWAT, generated by Flopy.
   40 LAYERS         3 ROWS        70 COLUMNS
    2 STRESS PERIOD(S) IN SIMULATION
 MODEL TIME UNIT IS DAYS
 MODEL LENGTH UNIT IS METERS
  ----- 
 | M T | ## BTN for MT3DMS, generated by Flopy.                                          
 | 3 D | ##                                                                              
  ----- 
 THE TRANSPORT MODEL CONSISTS OF    40 LAYER(S)    3 ROW(S)   70 COLUMN(S)
 NUMBER OF STRESS PERIOD(S) FOR TRANSPORT SIMULATION =    2
 NUMBER OF ALL COMPONENTS INCLUDED IN SIMULATION =    1
 NUMBER OF MOBILE COMPONENTS INCLUDED IN SIMULATION =    1
 UNIT FOR TIME IS D   ;  UNIT FOR LENGTH IS M   ;  UNIT FOR MASS IS KG  
 OPTIONAL PACKAGES INCLUDED IN CURRENT SIMULATION:
  o ADV   ON UNIT 32
  o DSP   ON UNIT 33
  o SSM   ON UNIT 34
  o GCG   ON UNIT 35


 VDF -- VARIABLE DENSITY FLOW, VERSION 1, 2/13/2004
         INPUT READ FROM UNIT 37

 COUPLING BETWEEN FLOW AND TRANSPORT IS EXPLICIT
 VARIABLE-DENSITY WATER-TABLE CORRECTIONS NOT ADDED
 MT3DMS SPECIES USED IN EQUATION OF STATE FOR FLUID DENSITY:          1
 AN UPSTREAM-WEIGHTED ALGORITHM IS USED TO CALCULATE FLUID DENSITY TERMS THAT CONSERVE MASS
 1000.0     REFERENCE DENSITY
 0.7143     DENSITY SLOPE FOR EQUATION OF STATE
 DENSITY EQUATION OF STATE
 RHO =    1000.000    
  + 0.7143     * ( CONC(   1) -  0.000     )



 FIRSTDT SPECIFIED BY USER IN THE VDF FILE IS:   0.1000000E-02
 THE GROUND-WATER TRANSPORT PROCESS IS INACTIVE

 THE OBSERVATION PROCESS IS INACTIVE
 THE SENSITIVITY PROCESS IS INACTIVE
 THE PARAMETER-ESTIMATION PROCESS IS INACTIVE

 MODE: FORWARD

  Confining bed flag for each layer:
   0   0   0   0   0   0   0   0   0   0   0   0   0   0   0   0   0   0   0   0
   0   0   0   0   0   0   0   0   0   0   0   0   0   0   0   0   0   0   0   0

      75673  ELEMENTS OF GX ARRAY USED OUT OF      75673
       8400  ELEMENTS OF GZ ARRAY USED OUT OF       8400
       8400  ELEMENTS OF IG ARRAY USED OUT OF       8400

                     DELR =  1.000000    

                     DELC =  1.000000    

 TOP ELEVATION OF LAYER 1 =   20.0000    

   MODEL LAYER BOTTOM EL. =   19.5000     FOR LAYER   1

   MODEL LAYER BOTTOM EL. =   19.0000     FOR LAYER   2

   MODEL LAYER BOTTOM EL. =   18.5000     FOR LAYER   3

   MODEL LAYER BOTTOM EL. =   18.0000     FOR LAYER   4

   MODEL LAYER BOTTOM EL. =   17.5000     FOR LAYER   5

   MODEL LAYER BOTTOM EL. =   17.0000     FOR LAYER   6

   MODEL LAYER BOTTOM EL. =   16.5000     FOR LAYER   7

   MODEL LAYER BOTTOM EL. =   16.0000     FOR LAYER   8

   MODEL LAYER BOTTOM EL. =   15.5000     FOR LAYER   9

   MODEL LAYER BOTTOM EL. =   15.0000     FOR LAYER  10

   MODEL LAYER BOTTOM EL. =   14.5000     FOR LAYER  11

   MODEL LAYER BOTTOM EL. =   14.0000     FOR LAYER  12

   MODEL LAYER BOTTOM EL. =   13.5000     FOR LAYER  13

   MODEL LAYER BOTTOM EL. =   13.0000     FOR LAYER  14

   MODEL LAYER BOTTOM EL. =   12.5000     FOR LAYER  15

   MODEL LAYER BOTTOM EL. =   12.0000     FOR LAYER  16

   MODEL LAYER BOTTOM EL. =   11.5000     FOR LAYER  17

   MODEL LAYER BOTTOM EL. =   11.0000     FOR LAYER  18

   MODEL LAYER BOTTOM EL. =   10.5000     FOR LAYER  19

   MODEL LAYER BOTTOM EL. =  10.00000     FOR LAYER  20

   MODEL LAYER BOTTOM EL. =   9.50000     FOR LAYER  21

   MODEL LAYER BOTTOM EL. =   9.00000     FOR LAYER  22

   MODEL LAYER BOTTOM EL. =   8.50000     FOR LAYER  23

   MODEL LAYER BOTTOM EL. =   8.00000     FOR LAYER  24

   MODEL LAYER BOTTOM EL. =   7.50000     FOR LAYER  25

   MODEL LAYER BOTTOM EL. =   7.00000     FOR LAYER  26

   MODEL LAYER BOTTOM EL. =   6.50000     FOR LAYER  27

   MODEL LAYER BOTTOM EL. =   6.00000     FOR LAYER  28

   MODEL LAYER BOTTOM EL. =   5.50000     FOR LAYER  29

   MODEL LAYER BOTTOM EL. =   5.00000     FOR LAYER  30

   MODEL LAYER BOTTOM EL. =   4.50000     FOR LAYER  31

   MODEL LAYER BOTTOM EL. =   4.00000     FOR LAYER  32

   MODEL LAYER BOTTOM EL. =   3.50000     FOR LAYER  33

   MODEL LAYER BOTTOM EL. =   3.00000     FOR LAYER  34

   MODEL LAYER BOTTOM EL. =   2.50000     FOR LAYER  35

   MODEL LAYER BOTTOM EL. =   2.00000     FOR LAYER  36

   MODEL LAYER BOTTOM EL. =   1.50000     FOR LAYER  37

   MODEL LAYER BOTTOM EL. =  1.000000     FOR LAYER  38

   MODEL LAYER BOTTOM EL. =  0.500000     FOR LAYER  39

   MODEL LAYER BOTTOM EL. =   0.00000     FOR LAYER  40


 STRESS PERIOD     LENGTH       TIME STEPS     MULTIPLIER FOR DELT    SS FLAG
 ----------------------------------------------------------------------------
        1        1.0000000        100                    1.000         SS
        2        100.00000        100                    1.000         TR

 COMBINED STEADY-STATE AND TRANSIENT SIMULATION




 LPF1 -- LAYER PROPERTY FLOW PACKAGE, VERSION 1, 1/11/2000
         INPUT READ FROM UNIT   15
 # LPF package for  SEAWAT, generated by Flopy.
 CELL-BY-CELL FLOWS WILL BE SAVED ON UNIT   53
 HEAD AT CELLS THAT CONVERT TO DRY= -1.00000E+30
 No named parameters

   LAYER FLAGS:
 LAYER       LAYTYP        LAYAVG         CHANI        LAYVKA        LAYWET
 ---------------------------------------------------------------------------
    1             0             0     1.000E+00             0             0
    2             0             0     1.000E+00             0             0
    3             0             0     1.000E+00             0             0
    4             0             0     1.000E+00             0             0
    5             0             0     1.000E+00             0             0
    6             0             0     1.000E+00             0             0
    7             0             0     1.000E+00             0             0
    8             0             0     1.000E+00             0             0
    9             0             0     1.000E+00             0             0
   10             0             0     1.000E+00             0             0
   11             0             0     1.000E+00             0             0
   12             0             0     1.000E+00             0             0
   13             0             0     1.000E+00             0             0
   14             0             0     1.000E+00             0             0
   15             0             0     1.000E+00             0             0
   16             0             0     1.000E+00             0             0
   17             0             0     1.000E+00             0             0
   18             0             0     1.000E+00             0             0
   19             0             0     1.000E+00             0             0
   20             0             0     1.000E+00             0             0
   21             0             0     1.000E+00             0             0
   22             0             0     1.000E+00             0             0
   23             0             0     1.000E+00             0             0
   24             0             0     1.000E+00             0             0
   25             0             0     1.000E+00             0             0
   26             0             0     1.000E+00             0             0
   27             0             0     1.000E+00             0             0
   28             0             0     1.000E+00             0             0
   29             0             0     1.000E+00             0             0
   30             0             0     1.000E+00             0             0
   31             0             0     1.000E+00             0             0
   32             0             0     1.000E+00             0             0
   33             0             0     1.000E+00             0             0
   34             0             0     1.000E+00             0             0
   35             0             0     1.000E+00             0             0
   36             0             0     1.000E+00             0             0
   37             0             0     1.000E+00             0             0
   38             0             0     1.000E+00             0             0
   39             0             0     1.000E+00             0             0
   40             0             0     1.000E+00             0             0

   INTERPRETATION OF LAYER FLAGS:
                        INTERBLOCK     HORIZONTAL    DATA IN
         LAYER TYPE   TRANSMISSIVITY   ANISOTROPY   ARRAY VKA   WETTABILITY
 LAYER      (LAYTYP)      (LAYAVG)       (CHANI)      (LAYVKA)      (LAYWET)
 ---------------------------------------------------------------------------
    1      CONFINED      HARMONIC     1.000E+00    VERTICAL K  NON-WETTABLE
    2      CONFINED      HARMONIC     1.000E+00    VERTICAL K  NON-WETTABLE
    3      CONFINED      HARMONIC     1.000E+00    VERTICAL K  NON-WETTABLE
    4      CONFINED      HARMONIC     1.000E+00    VERTICAL K  NON-WETTABLE
    5      CONFINED      HARMONIC     1.000E+00    VERTICAL K  NON-WETTABLE
    6      CONFINED      HARMONIC     1.000E+00    VERTICAL K  NON-WETTABLE
    7      CONFINED      HARMONIC     1.000E+00    VERTICAL K  NON-WETTABLE
    8      CONFINED      HARMONIC     1.000E+00    VERTICAL K  NON-WETTABLE
    9      CONFINED      HARMONIC     1.000E+00    VERTICAL K  NON-WETTABLE
   10      CONFINED      HARMONIC     1.000E+00    VERTICAL K  NON-WETTABLE
   11      CONFINED      HARMONIC     1.000E+00    VERTICAL K  NON-WETTABLE
   12      CONFINED      HARMONIC     1.000E+00    VERTICAL K  NON-WETTABLE
   13      CONFINED      HARMONIC     1.000E+00    VERTICAL K  NON-WETTABLE
   14      CONFINED      HARMONIC     1.000E+00    VERTICAL K  NON-WETTABLE
   15      CONFINED      HARMONIC     1.000E+00    VERTICAL K  NON-WETTABLE
   16      CONFINED      HARMONIC     1.000E+00    VERTICAL K  NON-WETTABLE
   17      CONFINED      HARMONIC     1.000E+00    VERTICAL K  NON-WETTABLE
   18      CONFINED      HARMONIC     1.000E+00    VERTICAL K  NON-WETTABLE
   19      CONFINED      HARMONIC     1.000E+00    VERTICAL K  NON-WETTABLE
   20      CONFINED      HARMONIC     1.000E+00    VERTICAL K  NON-WETTABLE
   21      CONFINED      HARMONIC     1.000E+00    VERTICAL K  NON-WETTABLE
   22      CONFINED      HARMONIC     1.000E+00    VERTICAL K  NON-WETTABLE
   23      CONFINED      HARMONIC     1.000E+00    VERTICAL K  NON-WETTABLE
   24      CONFINED      HARMONIC     1.000E+00    VERTICAL K  NON-WETTABLE
   25      CONFINED      HARMONIC     1.000E+00    VERTICAL K  NON-WETTABLE
   26      CONFINED      HARMONIC     1.000E+00    VERTICAL K  NON-WETTABLE
   27      CONFINED      HARMONIC     1.000E+00    VERTICAL K  NON-WETTABLE
   28      CONFINED      HARMONIC     1.000E+00    VERTICAL K  NON-WETTABLE
   29      CONFINED      HARMONIC     1.000E+00    VERTICAL K  NON-WETTABLE
   30      CONFINED      HARMONIC     1.000E+00    VERTICAL K  NON-WETTABLE
   31      CONFINED      HARMONIC     1.000E+00    VERTICAL K  NON-WETTABLE
   32      CONFINED      HARMONIC     1.000E+00    VERTICAL K  NON-WETTABLE
   33      CONFINED      HARMONIC     1.000E+00    VERTICAL K  NON-WETTABLE
   34      CONFINED      HARMONIC     1.000E+00    VERTICAL K  NON-WETTABLE
   35      CONFINED      HARMONIC     1.000E+00    VERTICAL K  NON-WETTABLE
   36      CONFINED      HARMONIC     1.000E+00    VERTICAL K  NON-WETTABLE
   37      CONFINED      HARMONIC     1.000E+00    VERTICAL K  NON-WETTABLE
   38      CONFINED      HARMONIC     1.000E+00    VERTICAL K  NON-WETTABLE
   39      CONFINED      HARMONIC     1.000E+00    VERTICAL K  NON-WETTABLE
   40      CONFINED      HARMONIC     1.000E+00    VERTICAL K  NON-WETTABLE

      25200 ELEMENTS IN X ARRAY ARE USED BY LPF
        240 ELEMENTS IN IX ARRAY ARE USED BY LPF

 PCG2 -- CONJUGATE GRADIENT SOLUTION PACKAGE, VERSION 2.4, 12/29/98
 # PCG package for  SEAWAT, generated by Flopy.
 MAXIMUM OF     50 CALLS OF SOLUTION ROUTINE
 MAXIMUM OF     30 INTERNAL ITERATIONS PER CALL TO SOLUTION ROUTINE
 MATRIX PRECONDITIONING TYPE :    1
      19800 ELEMENTS IN X ARRAY ARE USED BY PCG
      10500 ELEMENTS IN IX ARRAY ARE USED BY PCG
      33600 ELEMENTS IN Z ARRAY ARE USED BY PCG

      45000  ELEMENTS OF X ARRAY USED OUT OF      45000
      33600  ELEMENTS OF Z ARRAY USED OUT OF      33600
      10740  ELEMENTS OF IX ARRAY USED OUT OF      10740
          0  ELEMENTS OF XHS ARRAY USED OUT OF          1



                                    SOLUTION BY THE CONJUGATE-GRADIENT METHOD
                                   -------------------------------------------
                    MAXIMUM NUMBER OF CALLS TO PCG ROUTINE =       50
                        MAXIMUM ITERATIONS PER CALL TO PCG =       30
                               MATRIX PRECONDITIONING TYPE =        1
        RELAXATION FACTOR (ONLY USED WITH PRECOND. TYPE 1) =    0.10000E+01
 PARAMETER OF POLYNOMIAL PRECOND. = 2 (2) OR IS CALCULATED :        0
                         HEAD CHANGE CRITERION FOR CLOSURE =    0.10000E-07
                     RESIDUAL CHANGE CRITERION FOR CLOSURE =    0.10000E-04
            PCG HEAD AND RESIDUAL CHANGE PRINTOUT INTERVAL =      999
     PRINTING FROM SOLVER IS LIMITED(1) OR SUPPRESSED (>1) =        3
                                         DAMPING PARAMETER =    0.10000E+01

 WETTING CAPABILITY IS NOT ACTIVE IN ANY LAYER



              HYD. COND. ALONG ROWS FOR LAYER   1
 READING ON UNIT   15 WITH FORMAT:           (70E15.6) 

      VERTICAL HYD. COND. =  1.000000E-01 FOR LAYER   1

         SPECIFIC STORAGE =  5.000000E-05 FOR LAYER   1



              HYD. COND. ALONG ROWS FOR LAYER   2
 READING ON UNIT   15 WITH FORMAT:           (70E15.6) 

      VERTICAL HYD. COND. =  1.000000E-01 FOR LAYER   2

         SPECIFIC STORAGE =  5.000000E-05 FOR LAYER   2



              HYD. COND. ALONG ROWS FOR LAYER   3
 READING ON UNIT   15 WITH FORMAT:           (70E15.6) 

      VERTICAL HYD. COND. =  1.000000E-01 FOR LAYER   3

         SPECIFIC STORAGE =  5.000000E-05 FOR LAYER   3



              HYD. COND. ALONG ROWS FOR LAYER   4
 READING ON UNIT   15 WITH FORMAT:           (70E15.6) 

      VERTICAL HYD. COND. =  1.000000E-01 FOR LAYER   4

         SPECIFIC STORAGE =  5.000000E-05 FOR LAYER   4



              HYD. COND. ALONG ROWS FOR LAYER   5
 READING ON UNIT   15 WITH FORMAT:           (70E15.6) 

      VERTICAL HYD. COND. =  1.000000E-01 FOR LAYER   5

         SPECIFIC STORAGE =  5.000000E-05 FOR LAYER   5



              HYD. COND. ALONG ROWS FOR LAYER   6
 READING ON UNIT   15 WITH FORMAT:           (70E15.6) 

      VERTICAL HYD. COND. =  1.000000E-01 FOR LAYER   6

         SPECIFIC STORAGE =  5.000000E-05 FOR LAYER   6



              HYD. COND. ALONG ROWS FOR LAYER   7
 READING ON UNIT   15 WITH FORMAT:           (70E15.6) 

      VERTICAL HYD. COND. =  1.000000E-01 FOR LAYER   7

         SPECIFIC STORAGE =  5.000000E-05 FOR LAYER   7



              HYD. COND. ALONG ROWS FOR LAYER   8
 READING ON UNIT   15 WITH FORMAT:           (70E15.6) 

      VERTICAL HYD. COND. =  1.000000E-01 FOR LAYER   8

         SPECIFIC STORAGE =  5.000000E-05 FOR LAYER   8



              HYD. COND. ALONG ROWS FOR LAYER   9
 READING ON UNIT   15 WITH FORMAT:           (70E15.6) 

      VERTICAL HYD. COND. =  1.000000E-01 FOR LAYER   9

         SPECIFIC STORAGE =  5.000000E-05 FOR LAYER   9



              HYD. COND. ALONG ROWS FOR LAYER  10
 READING ON UNIT   15 WITH FORMAT:           (70E15.6) 

      VERTICAL HYD. COND. =  1.000000E-01 FOR LAYER  10

         SPECIFIC STORAGE =  5.000000E-05 FOR LAYER  10



              HYD. COND. ALONG ROWS FOR LAYER  11
 READING ON UNIT   15 WITH FORMAT:           (70E15.6) 

      VERTICAL HYD. COND. =  1.000000E-01 FOR LAYER  11

         SPECIFIC STORAGE =  5.000000E-05 FOR LAYER  11



              HYD. COND. ALONG ROWS FOR LAYER  12
 READING ON UNIT   15 WITH FORMAT:           (70E15.6) 

      VERTICAL HYD. COND. =  1.000000E-01 FOR LAYER  12

         SPECIFIC STORAGE =  5.000000E-05 FOR LAYER  12



              HYD. COND. ALONG ROWS FOR LAYER  13
 READING ON UNIT   15 WITH FORMAT:           (70E15.6) 

      VERTICAL HYD. COND. =  1.000000E-01 FOR LAYER  13

         SPECIFIC STORAGE =  5.000000E-05 FOR LAYER  13



              HYD. COND. ALONG ROWS FOR LAYER  14
 READING ON UNIT   15 WITH FORMAT:           (70E15.6) 

      VERTICAL HYD. COND. =  1.000000E-01 FOR LAYER  14

         SPECIFIC STORAGE =  5.000000E-05 FOR LAYER  14



              HYD. COND. ALONG ROWS FOR LAYER  15
 READING ON UNIT   15 WITH FORMAT:           (70E15.6) 

      VERTICAL HYD. COND. =  1.000000E-01 FOR LAYER  15

         SPECIFIC STORAGE =  5.000000E-05 FOR LAYER  15



              HYD. COND. ALONG ROWS FOR LAYER  16
 READING ON UNIT   15 WITH FORMAT:           (70E15.6) 

      VERTICAL HYD. COND. =  1.000000E-01 FOR LAYER  16

         SPECIFIC STORAGE =  5.000000E-05 FOR LAYER  16



              HYD. COND. ALONG ROWS FOR LAYER  17
 READING ON UNIT   15 WITH FORMAT:           (70E15.6) 

      VERTICAL HYD. COND. =  1.000000E-01 FOR LAYER  17

         SPECIFIC STORAGE =  5.000000E-05 FOR LAYER  17



              HYD. COND. ALONG ROWS FOR LAYER  18
 READING ON UNIT   15 WITH FORMAT:           (70E15.6) 

      VERTICAL HYD. COND. =  1.000000E-01 FOR LAYER  18

         SPECIFIC STORAGE =  5.000000E-05 FOR LAYER  18



              HYD. COND. ALONG ROWS FOR LAYER  19
 READING ON UNIT   15 WITH FORMAT:           (70E15.6) 

      VERTICAL HYD. COND. =  1.000000E-01 FOR LAYER  19

         SPECIFIC STORAGE =  5.000000E-05 FOR LAYER  19



              HYD. COND. ALONG ROWS FOR LAYER  20
 READING ON UNIT   15 WITH FORMAT:           (70E15.6) 

      VERTICAL HYD. COND. =  1.000000E-01 FOR LAYER  20

         SPECIFIC STORAGE =  5.000000E-05 FOR LAYER  20



              HYD. COND. ALONG ROWS FOR LAYER  21
 READING ON UNIT   15 WITH FORMAT:           (70E15.6) 

      VERTICAL HYD. COND. =  1.000000E-01 FOR LAYER  21

         SPECIFIC STORAGE =  5.000000E-05 FOR LAYER  21



              HYD. COND. ALONG ROWS FOR LAYER  22
 READING ON UNIT   15 WITH FORMAT:           (70E15.6) 

      VERTICAL HYD. COND. =  1.000000E-01 FOR LAYER  22

         SPECIFIC STORAGE =  5.000000E-05 FOR LAYER  22



              HYD. COND. ALONG ROWS FOR LAYER  23
 READING ON UNIT   15 WITH FORMAT:           (70E15.6) 

      VERTICAL HYD. COND. =  1.000000E-01 FOR LAYER  23

         SPECIFIC STORAGE =  5.000000E-05 FOR LAYER  23



              HYD. COND. ALONG ROWS FOR LAYER  24
 READING ON UNIT   15 WITH FORMAT:           (70E15.6) 

      VERTICAL HYD. COND. =  1.000000E-01 FOR LAYER  24

         SPECIFIC STORAGE =  5.000000E-05 FOR LAYER  24



              HYD. COND. ALONG ROWS FOR LAYER  25
 READING ON UNIT   15 WITH FORMAT:           (70E15.6) 

      VERTICAL HYD. COND. =  1.000000E-01 FOR LAYER  25

         SPECIFIC STORAGE =  5.000000E-05 FOR LAYER  25



              HYD. COND. ALONG ROWS FOR LAYER  26
 READING ON UNIT   15 WITH FORMAT:           (70E15.6) 

      VERTICAL HYD. COND. =  1.000000E-01 FOR LAYER  26

         SPECIFIC STORAGE =  5.000000E-05 FOR LAYER  26



              HYD. COND. ALONG ROWS FOR LAYER  27
 READING ON UNIT   15 WITH FORMAT:           (70E15.6) 

      VERTICAL HYD. COND. =  1.000000E-01 FOR LAYER  27

         SPECIFIC STORAGE =  5.000000E-05 FOR LAYER  27



              HYD. COND. ALONG ROWS FOR LAYER  28
 READING ON UNIT   15 WITH FORMAT:           (70E15.6) 

      VERTICAL HYD. COND. =  1.000000E-01 FOR LAYER  28

         SPECIFIC STORAGE =  5.000000E-05 FOR LAYER  28



              HYD. COND. ALONG ROWS FOR LAYER  29
 READING ON UNIT   15 WITH FORMAT:           (70E15.6) 

      VERTICAL HYD. COND. =  1.000000E-01 FOR LAYER  29

         SPECIFIC STORAGE =  5.000000E-05 FOR LAYER  29



              HYD. COND. ALONG ROWS FOR LAYER  30
 READING ON UNIT   15 WITH FORMAT:           (70E15.6) 

      VERTICAL HYD. COND. =  1.000000E-01 FOR LAYER  30

         SPECIFIC STORAGE =  5.000000E-05 FOR LAYER  30



              HYD. COND. ALONG ROWS FOR LAYER  31
 READING ON UNIT   15 WITH FORMAT:           (70E15.6) 

      VERTICAL HYD. COND. =  1.000000E-01 FOR LAYER  31

         SPECIFIC STORAGE =  5.000000E-05 FOR LAYER  31



              HYD. COND. ALONG ROWS FOR LAYER  32
 READING ON UNIT   15 WITH FORMAT:           (70E15.6) 

      VERTICAL HYD. COND. =  1.000000E-01 FOR LAYER  32

         SPECIFIC STORAGE =  5.000000E-05 FOR LAYER  32



              HYD. COND. ALONG ROWS FOR LAYER  33
 READING ON UNIT   15 WITH FORMAT:           (70E15.6) 

      VERTICAL HYD. COND. =  1.000000E-01 FOR LAYER  33

         SPECIFIC STORAGE =  5.000000E-05 FOR LAYER  33



              HYD. COND. ALONG ROWS FOR LAYER  34
 READING ON UNIT   15 WITH FORMAT:           (70E15.6) 

      VERTICAL HYD. COND. =  1.000000E-01 FOR LAYER  34

         SPECIFIC STORAGE =  5.000000E-05 FOR LAYER  34



              HYD. COND. ALONG ROWS FOR LAYER  35
 READING ON UNIT   15 WITH FORMAT:           (70E15.6) 

      VERTICAL HYD. COND. =  1.000000E-01 FOR LAYER  35

         SPECIFIC STORAGE =  5.000000E-05 FOR LAYER  35



              HYD. COND. ALONG ROWS FOR LAYER  36
 READING ON UNIT   15 WITH FORMAT:           (70E15.6) 

      VERTICAL HYD. COND. =  1.000000E-01 FOR LAYER  36

         SPECIFIC STORAGE =  5.000000E-05 FOR LAYER  36



              HYD. COND. ALONG ROWS FOR LAYER  37
 READING ON UNIT   15 WITH FORMAT:           (70E15.6) 

      VERTICAL HYD. COND. =  1.000000E-01 FOR LAYER  37

         SPECIFIC STORAGE =  5.000000E-05 FOR LAYER  37



              HYD. COND. ALONG ROWS FOR LAYER  38
 READING ON UNIT   15 WITH FORMAT:           (70E15.6) 

      VERTICAL HYD. COND. =  1.000000E-01 FOR LAYER  38

         SPECIFIC STORAGE =  5.000000E-05 FOR LAYER  38



              HYD. COND. ALONG ROWS FOR LAYER  39
 READING ON UNIT   15 WITH FORMAT:           (70E15.6) 

      VERTICAL HYD. COND. =  1.000000E-01 FOR LAYER  39

         SPECIFIC STORAGE =  5.000000E-05 FOR LAYER  39



              HYD. COND. ALONG ROWS FOR LAYER  40
 READING ON UNIT   15 WITH FORMAT:           (70E15.6) 

      VERTICAL HYD. COND. =  1.000000E-01 FOR LAYER  40

         SPECIFIC STORAGE =  5.000000E-05 FOR LAYER  40
 BTN5 -- BASIC TRANSPORT PACKAGE, VERSION 5, OCTOBER 2006, INPUT READ FROM UNIT 31
     126356 ELEMENTS OF THE  X ARRAY USED BY THE BTN PACKAGE
       8440 ELEMENTS OF THE IX ARRAY USED BY THE BTN PACKAGE

 FLOW MODEL IS TRANSIENT

 ADV5 -- ADVECTION PACKAGE, VERSION 5, FEBRUARY 2005, INPUT READ FROM UNIT 32
 ADVECTION IS SOLVED WITH THE UPSTREAM FINITE DIFFERENCE SCHEME
 COURANT NUMBER ALLOWED IN SOLVING THE ADVECTION TERM = 0.750    
          0 ELEMENTS OF THE  X ARRAY USED BY THE ADV PACKAGE
          0 ELEMENTS OF THE IX ARRAY USED BY THE ADV PACKAGE

 DSP5 -- DISPERSION PACKAGE, VERSION 5, OCTOBER 2006, INPUT READ FROM UNIT 33
      92480 ELEMENTS OF THE  X ARRAY USED BY THE DSP PACKAGE
          0 ELEMENTS OF THE IX ARRAY USED BY THE DSP PACKAGE

 SSM5 -- SINK & SOURCE MIXING PACKAGE, VERSION 5, OCTOBER 2006, INPUT READ FROM UNIT 34
 HEADER LINE OF THE SSM PACKAGE INPUT FILE:
  F F F F F F F F F F F F F F F F                                                                                                                                                                        
 MAJOR STRESS COMPONENTS PRESENT IN THE FLOW MODEL:
 MAXIMUM NUMBER OF POINT SINKS/SOURCES =     240
       3120 ELEMENTS OF THE  X ARRAY USED BY THE SSM PACKAGE
          0 ELEMENTS OF THE IX ARRAY BY THE SSM PACKAGE

 GCG5 -- GENERALIZED CONJUGATE GRADIENT SOLVER PACKAGE, VERSION 5, FEBRUARY 2005 INPUT READ FROM UNIT 35
 MAXIMUM OF    1 OUTER ITERATIONS
        AND  500 INNER ITERATIONS ALLOWED FOR CLOSURE
 THE PRECONDITIONING TYPE SELECTED IS JACOBI.
 DISPERSION CROSS TERMS LUMPED INTO RIGHT-HAND-SIDE
     126500 ELEMENTS OF THE  X ARRAY USED BY THE GCG PACKAGE
       1500 ELEMENTS OF THE IX ARRAY USED BY THE GCG PACKAGE

 
 # BAS6 package for  SEAWAT, generated by Flopy.                                 
 THE FREE FORMAT OPTION HAS BEEN SELECTED
   40 LAYERS         3 ROWS        70 COLUMNS
    2 STRESS PERIOD(S) IN SIMULATION

 BAS6 -- BASIC PACKAGE, VERSION 6, 1/11/2000 INPUT READ FROM UNIT   13
        200 ELEMENTS IN IR ARRAY ARE USED BY BAS

 CHD6 -- TIME-VARIANT SPECIFIED-HEAD PACKAGE, VERSION 6, 1/11/2000
 INPUT READ FROM UNIT   24
 # CHD package for  SEAWAT, generated by Flopy.
 No named parameters
 MAXIMUM OF    120 TIME-VARIANT SPECIFIED-HEAD CELLS AT ONE TIME
        600 ELEMENTS IN RX ARRAY ARE USED BY CHD

        600  ELEMENTS OF RX ARRAY USED OUT OF        600
          0  ELEMENTS OF RZ ARRAY USED OUT OF          1
        200  ELEMENTS OF IR ARRAY USED OUT OF        200
1
 # BAS6 package for  SEAWAT, generated by Flopy.                                 
                                                                                 



                     BOUNDARY ARRAY FOR LAYER   1
 READING ON UNIT   13 WITH FORMAT:             (70I10) 



                     BOUNDARY ARRAY FOR LAYER   2
 READING ON UNIT   13 WITH FORMAT:             (70I10) 



                     BOUNDARY ARRAY FOR LAYER   3
 READING ON UNIT   13 WITH FORMAT:             (70I10) 



                     BOUNDARY ARRAY FOR LAYER   4
 READING ON UNIT   13 WITH FORMAT:             (70I10) 



                     BOUNDARY ARRAY FOR LAYER   5
 READING ON UNIT   13 WITH FORMAT:             (70I10) 



                     BOUNDARY ARRAY FOR LAYER   6
 READING ON UNIT   13 WITH FORMAT:             (70I10) 



                     BOUNDARY ARRAY FOR LAYER   7
 READING ON UNIT   13 WITH FORMAT:             (70I10) 



                     BOUNDARY ARRAY FOR LAYER   8
 READING ON UNIT   13 WITH FORMAT:             (70I10) 



                     BOUNDARY ARRAY FOR LAYER   9
 READING ON UNIT   13 WITH FORMAT:             (70I10) 



                     BOUNDARY ARRAY FOR LAYER  10
 READING ON UNIT   13 WITH FORMAT:             (70I10) 



                     BOUNDARY ARRAY FOR LAYER  11
 READING ON UNIT   13 WITH FORMAT:             (70I10) 



                     BOUNDARY ARRAY FOR LAYER  12
 READING ON UNIT   13 WITH FORMAT:             (70I10) 



                     BOUNDARY ARRAY FOR LAYER  13
 READING ON UNIT   13 WITH FORMAT:             (70I10) 



                     BOUNDARY ARRAY FOR LAYER  14
 READING ON UNIT   13 WITH FORMAT:             (70I10) 



                     BOUNDARY ARRAY FOR LAYER  15
 READING ON UNIT   13 WITH FORMAT:             (70I10) 



                     BOUNDARY ARRAY FOR LAYER  16
 READING ON UNIT   13 WITH FORMAT:             (70I10) 



                     BOUNDARY ARRAY FOR LAYER  17
 READING ON UNIT   13 WITH FORMAT:             (70I10) 



                     BOUNDARY ARRAY FOR LAYER  18
 READING ON UNIT   13 WITH FORMAT:             (70I10) 



                     BOUNDARY ARRAY FOR LAYER  19
 READING ON UNIT   13 WITH FORMAT:             (70I10) 



                     BOUNDARY ARRAY FOR LAYER  20
 READING ON UNIT   13 WITH FORMAT:             (70I10) 



                     BOUNDARY ARRAY FOR LAYER  21
 READING ON UNIT   13 WITH FORMAT:             (70I10) 



                     BOUNDARY ARRAY FOR LAYER  22
 READING ON UNIT   13 WITH FORMAT:             (70I10) 



                     BOUNDARY ARRAY FOR LAYER  23
 READING ON UNIT   13 WITH FORMAT:             (70I10) 



                     BOUNDARY ARRAY FOR LAYER  24
 READING ON UNIT   13 WITH FORMAT:             (70I10) 



                     BOUNDARY ARRAY FOR LAYER  25
 READING ON UNIT   13 WITH FORMAT:             (70I10) 



                     BOUNDARY ARRAY FOR LAYER  26
 READING ON UNIT   13 WITH FORMAT:             (70I10) 



                     BOUNDARY ARRAY FOR LAYER  27
 READING ON UNIT   13 WITH FORMAT:             (70I10) 



                     BOUNDARY ARRAY FOR LAYER  28
 READING ON UNIT   13 WITH FORMAT:             (70I10) 



                     BOUNDARY ARRAY FOR LAYER  29
 READING ON UNIT   13 WITH FORMAT:             (70I10) 



                     BOUNDARY ARRAY FOR LAYER  30
 READING ON UNIT   13 WITH FORMAT:             (70I10) 



                     BOUNDARY ARRAY FOR LAYER  31
 READING ON UNIT   13 WITH FORMAT:             (70I10) 



                     BOUNDARY ARRAY FOR LAYER  32
 READING ON UNIT   13 WITH FORMAT:             (70I10) 



                     BOUNDARY ARRAY FOR LAYER  33
 READING ON UNIT   13 WITH FORMAT:             (70I10) 



                     BOUNDARY ARRAY FOR LAYER  34
 READING ON UNIT   13 WITH FORMAT:             (70I10) 



                     BOUNDARY ARRAY FOR LAYER  35
 READING ON UNIT   13 WITH FORMAT:             (70I10) 



                     BOUNDARY ARRAY FOR LAYER  36
 READING ON UNIT   13 WITH FORMAT:             (70I10) 



                     BOUNDARY ARRAY FOR LAYER  37
 READING ON UNIT   13 WITH FORMAT:             (70I10) 



                     BOUNDARY ARRAY FOR LAYER  38
 READING ON UNIT   13 WITH FORMAT:             (70I10) 



                     BOUNDARY ARRAY FOR LAYER  39
 READING ON UNIT   13 WITH FORMAT:             (70I10) 



                     BOUNDARY ARRAY FOR LAYER  40
 READING ON UNIT   13 WITH FORMAT:             (70I10) 

 AQUIFER HEAD WILL BE SET TO -999.99     AT ALL NO-FLOW NODES (IBOUND=0).



                       INITIAL HEAD FOR LAYER   1
 READING ON UNIT   13 WITH FORMAT:           (70E15.6) 



                       INITIAL HEAD FOR LAYER   2
 READING ON UNIT   13 WITH FORMAT:           (70E15.6) 



                       INITIAL HEAD FOR LAYER   3
 READING ON UNIT   13 WITH FORMAT:           (70E15.6) 



                       INITIAL HEAD FOR LAYER   4
 READING ON UNIT   13 WITH FORMAT:           (70E15.6) 



                       INITIAL HEAD FOR LAYER   5
 READING ON UNIT   13 WITH FORMAT:           (70E15.6) 



                       INITIAL HEAD FOR LAYER   6
 READING ON UNIT   13 WITH FORMAT:           (70E15.6) 



                       INITIAL HEAD FOR LAYER   7
 READING ON UNIT   13 WITH FORMAT:           (70E15.6) 



                       INITIAL HEAD FOR LAYER   8
 READING ON UNIT   13 WITH FORMAT:           (70E15.6) 



                       INITIAL HEAD FOR LAYER   9
 READING ON UNIT   13 WITH FORMAT:           (70E15.6) 



                       INITIAL HEAD FOR LAYER  10
 READING ON UNIT   13 WITH FORMAT:           (70E15.6) 



                       INITIAL HEAD FOR LAYER  11
 READING ON UNIT   13 WITH FORMAT:           (70E15.6) 



                       INITIAL HEAD FOR LAYER  12
 READING ON UNIT   13 WITH FORMAT:           (70E15.6) 



                       INITIAL HEAD FOR LAYER  13
 READING ON UNIT   13 WITH FORMAT:           (70E15.6) 



                       INITIAL HEAD FOR LAYER  14
 READING ON UNIT   13 WITH FORMAT:           (70E15.6) 



                       INITIAL HEAD FOR LAYER  15
 READING ON UNIT   13 WITH FORMAT:           (70E15.6) 



                       INITIAL HEAD FOR LAYER  16
 READING ON UNIT   13 WITH FORMAT:           (70E15.6) 



                       INITIAL HEAD FOR LAYER  17
 READING ON UNIT   13 WITH FORMAT:           (70E15.6) 



                       INITIAL HEAD FOR LAYER  18
 READING ON UNIT   13 WITH FORMAT:           (70E15.6) 



                       INITIAL HEAD FOR LAYER  19
 READING ON UNIT   13 WITH FORMAT:           (70E15.6) 



                       INITIAL HEAD FOR LAYER  20
 READING ON UNIT   13 WITH FORMAT:           (70E15.6) 



                       INITIAL HEAD FOR LAYER  21
 READING ON UNIT   13 WITH FORMAT:           (70E15.6) 



                       INITIAL HEAD FOR LAYER  22
 READING ON UNIT   13 WITH FORMAT:           (70E15.6) 



                       INITIAL HEAD FOR LAYER  23
 READING ON UNIT   13 WITH FORMAT:           (70E15.6) 



                       INITIAL HEAD FOR LAYER  24
 READING ON UNIT   13 WITH FORMAT:           (70E15.6) 



                       INITIAL HEAD FOR LAYER  25
 READING ON UNIT   13 WITH FORMAT:           (70E15.6) 



                       INITIAL HEAD FOR LAYER  26
 READING ON UNIT   13 WITH FORMAT:           (70E15.6) 



                       INITIAL HEAD FOR LAYER  27
 READING ON UNIT   13 WITH FORMAT:           (70E15.6) 



                       INITIAL HEAD FOR LAYER  28
 READING ON UNIT   13 WITH FORMAT:           (70E15.6) 



                       INITIAL HEAD FOR LAYER  29
 READING ON UNIT   13 WITH FORMAT:           (70E15.6) 



                       INITIAL HEAD FOR LAYER  30
 READING ON UNIT   13 WITH FORMAT:           (70E15.6) 



                       INITIAL HEAD FOR LAYER  31
 READING ON UNIT   13 WITH FORMAT:           (70E15.6) 



                       INITIAL HEAD FOR LAYER  32
 READING ON UNIT   13 WITH FORMAT:           (70E15.6) 



                       INITIAL HEAD FOR LAYER  33
 READING ON UNIT   13 WITH FORMAT:           (70E15.6) 



                       INITIAL HEAD FOR LAYER  34
 READING ON UNIT   13 WITH FORMAT:           (70E15.6) 



                       INITIAL HEAD FOR LAYER  35
 READING ON UNIT   13 WITH FORMAT:           (70E15.6) 



                       INITIAL HEAD FOR LAYER  36
 READING ON UNIT   13 WITH FORMAT:           (70E15.6) 



                       INITIAL HEAD FOR LAYER  37
 READING ON UNIT   13 WITH FORMAT:           (70E15.6) 



                       INITIAL HEAD FOR LAYER  38
 READING ON UNIT   13 WITH FORMAT:           (70E15.6) 



                       INITIAL HEAD FOR LAYER  39
 READING ON UNIT   13 WITH FORMAT:           (70E15.6) 



                       INITIAL HEAD FOR LAYER  40
 READING ON UNIT   13 WITH FORMAT:           (70E15.6) 
 # OC package for  SEAWAT, generated by Flopy.

 OUTPUT CONTROL IS SPECIFIED ONLY AT TIME STEPS FOR WHICH OUTPUT IS DESIRED
 COMPACT CELL-BY-CELL BUDGET FILES WILL BE WRITTEN
 AUXILIARY DATA WILL BE SAVED IN CELL-BY-CELL BUDGET FILES
 HEAD PRINT FORMAT CODE IS   0    DRAWDOWN PRINT FORMAT CODE IS   0
 HEADS WILL BE SAVED ON UNIT   51    DRAWDOWNS WILL BE SAVED ON UNIT    0


     0 TIME-VARIANT SPECIFIED-HEAD PARAMETERS
 LAYER NUMBER  AQUIFER TYPE
 ------------  ------------
       1            0
       2            0
       3            0
       4            0
       5            0
       6            0
       7            0
       8            0
       9            0
      10            0
      11            0
      12            0
      13            0
      14            0
      15            0
      16            0
      17            0
      18            0
      19            0
      20            0
      21            0
      22            0
      23            0
      24            0
      25            0
      26            0
      27            0
      28            0
      29            0
      30            0
      31            0
      32            0
      33            0
      34            0
      35            0
      36            0
      37            0
      38            0
      39            0
      40            0
                                       WIDTH ALONG ROWS (DELR)  =  1.0000000    
                                       WIDTH ALONG COLS (DELC)  =  1.0000000    
                                       TOP ELEV. OF 1ST LAYER   =   20.00000    
                                       CELL THICKNESS (DZ)      =  0.5000000     FOR LAYER  1
                                       CELL THICKNESS (DZ)      =  0.5000000     FOR LAYER  2
                                       CELL THICKNESS (DZ)      =  0.5000000     FOR LAYER  3
                                       CELL THICKNESS (DZ)      =  0.5000000     FOR LAYER  4
                                       CELL THICKNESS (DZ)      =  0.5000000     FOR LAYER  5
                                       CELL THICKNESS (DZ)      =  0.5000000     FOR LAYER  6
                                       CELL THICKNESS (DZ)      =  0.5000000     FOR LAYER  7
                                       CELL THICKNESS (DZ)      =  0.5000000     FOR LAYER  8
                                       CELL THICKNESS (DZ)      =  0.5000000     FOR LAYER  9
                                       CELL THICKNESS (DZ)      =  0.5000000     FOR LAYER 10
                                       CELL THICKNESS (DZ)      =  0.5000000     FOR LAYER 11
                                       CELL THICKNESS (DZ)      =  0.5000000     FOR LAYER 12
                                       CELL THICKNESS (DZ)      =  0.5000000     FOR LAYER 13
                                       CELL THICKNESS (DZ)      =  0.5000000     FOR LAYER 14
                                       CELL THICKNESS (DZ)      =  0.5000000     FOR LAYER 15
                                       CELL THICKNESS (DZ)      =  0.5000000     FOR LAYER 16
                                       CELL THICKNESS (DZ)      =  0.5000000     FOR LAYER 17
                                       CELL THICKNESS (DZ)      =  0.5000000     FOR LAYER 18
                                       CELL THICKNESS (DZ)      =  0.5000000     FOR LAYER 19
                                       CELL THICKNESS (DZ)      =  0.5000000     FOR LAYER 20
                                       CELL THICKNESS (DZ)      =  0.5000000     FOR LAYER 21
                                       CELL THICKNESS (DZ)      =  0.5000000     FOR LAYER 22
                                       CELL THICKNESS (DZ)      =  0.5000000     FOR LAYER 23
                                       CELL THICKNESS (DZ)      =  0.5000000     FOR LAYER 24
                                       CELL THICKNESS (DZ)      =  0.5000000     FOR LAYER 25
                                       CELL THICKNESS (DZ)      =  0.5000000     FOR LAYER 26
                                       CELL THICKNESS (DZ)      =  0.5000000     FOR LAYER 27
                                       CELL THICKNESS (DZ)      =  0.5000000     FOR LAYER 28
                                       CELL THICKNESS (DZ)      =  0.5000000     FOR LAYER 29
                                       CELL THICKNESS (DZ)      =  0.5000000     FOR LAYER 30
                                       CELL THICKNESS (DZ)      =  0.5000000     FOR LAYER 31
                                       CELL THICKNESS (DZ)      =  0.5000000     FOR LAYER 32
                                       CELL THICKNESS (DZ)      =  0.5000000     FOR LAYER 33
                                       CELL THICKNESS (DZ)      =  0.5000000     FOR LAYER 34
                                       CELL THICKNESS (DZ)      =  0.5000000     FOR LAYER 35
                                       CELL THICKNESS (DZ)      =  0.5000000     FOR LAYER 36
                                       CELL THICKNESS (DZ)      =  0.5000000     FOR LAYER 37
                                       CELL THICKNESS (DZ)      =  0.5000000     FOR LAYER 38
                                       CELL THICKNESS (DZ)      =  0.5000000     FOR LAYER 39
                                       CELL THICKNESS (DZ)      =  0.5000000     FOR LAYER 40
                                       POROSITY                 =  0.2000000     FOR LAYER  1
                                       POROSITY                 =  0.2000000     FOR LAYER  2
                                       POROSITY                 =  0.2000000     FOR LAYER  3
                                       POROSITY                 =  0.2000000     FOR LAYER  4
                                       POROSITY                 =  0.2000000     FOR LAYER  5
                                       POROSITY                 =  0.2000000     FOR LAYER  6
                                       POROSITY                 =  0.2000000     FOR LAYER  7
                                       POROSITY                 =  0.2000000     FOR LAYER  8
                                       POROSITY                 =  0.2000000     FOR LAYER  9
                                       POROSITY                 =  0.2000000     FOR LAYER 10
                                       POROSITY                 =  0.2000000     FOR LAYER 11
                                       POROSITY                 =  0.2000000     FOR LAYER 12
                                       POROSITY                 =  0.2000000     FOR LAYER 13
                                       POROSITY                 =  0.2000000     FOR LAYER 14
                                       POROSITY                 =  0.2000000     FOR LAYER 15
                                       POROSITY                 =  0.2000000     FOR LAYER 16
                                       POROSITY                 =  0.2000000     FOR LAYER 17
                                       POROSITY                 =  0.2000000     FOR LAYER 18
                                       POROSITY                 =  0.2000000     FOR LAYER 19
                                       POROSITY                 =  0.2000000     FOR LAYER 20
                                       POROSITY                 =  0.2000000     FOR LAYER 21
                                       POROSITY                 =  0.2000000     FOR LAYER 22
                                       POROSITY                 =  0.2000000     FOR LAYER 23
                                       POROSITY                 =  0.2000000     FOR LAYER 24
                                       POROSITY                 =  0.2000000     FOR LAYER 25
                                       POROSITY                 =  0.2000000     FOR LAYER 26
                                       POROSITY                 =  0.2000000     FOR LAYER 27
                                       POROSITY                 =  0.2000000     FOR LAYER 28
                                       POROSITY                 =  0.2000000     FOR LAYER 29
                                       POROSITY                 =  0.2000000     FOR LAYER 30
                                       POROSITY                 =  0.2000000     FOR LAYER 31
                                       POROSITY                 =  0.2000000     FOR LAYER 32
                                       POROSITY                 =  0.2000000     FOR LAYER 33
                                       POROSITY                 =  0.2000000     FOR LAYER 34
                                       POROSITY                 =  0.2000000     FOR LAYER 35
                                       POROSITY                 =  0.2000000     FOR LAYER 36
                                       POROSITY                 =  0.2000000     FOR LAYER 37
                                       POROSITY                 =  0.2000000     FOR LAYER 38
                                       POROSITY                 =  0.2000000     FOR LAYER 39
                                       POROSITY                 =  0.2000000     FOR LAYER 40

                     CONCN. BOUNDARY ARRAY    FOR LAYER  1 READ ON UNIT 31 USING FORMAT: "            (70I10) "
                     ------------------------------------------------------------------------------------------

                     CONCN. BOUNDARY ARRAY    FOR LAYER  2 READ ON UNIT 31 USING FORMAT: "            (70I10) "
                     ------------------------------------------------------------------------------------------

                     CONCN. BOUNDARY ARRAY    FOR LAYER  3 READ ON UNIT 31 USING FORMAT: "            (70I10) "
                     ------------------------------------------------------------------------------------------

                     CONCN. BOUNDARY ARRAY    FOR LAYER  4 READ ON UNIT 31 USING FORMAT: "            (70I10) "
                     ------------------------------------------------------------------------------------------

                     CONCN. BOUNDARY ARRAY    FOR LAYER  5 READ ON UNIT 31 USING FORMAT: "            (70I10) "
                     ------------------------------------------------------------------------------------------

                     CONCN. BOUNDARY ARRAY    FOR LAYER  6 READ ON UNIT 31 USING FORMAT: "            (70I10) "
                     ------------------------------------------------------------------------------------------

                     CONCN. BOUNDARY ARRAY    FOR LAYER  7 READ ON UNIT 31 USING FORMAT: "            (70I10) "
                     ------------------------------------------------------------------------------------------

                     CONCN. BOUNDARY ARRAY    FOR LAYER  8 READ ON UNIT 31 USING FORMAT: "            (70I10) "
                     ------------------------------------------------------------------------------------------

                     CONCN. BOUNDARY ARRAY    FOR LAYER  9 READ ON UNIT 31 USING FORMAT: "            (70I10) "
                     ------------------------------------------------------------------------------------------

                     CONCN. BOUNDARY ARRAY    FOR LAYER 10 READ ON UNIT 31 USING FORMAT: "            (70I10) "
                     ------------------------------------------------------------------------------------------

                     CONCN. BOUNDARY ARRAY    FOR LAYER 11 READ ON UNIT 31 USING FORMAT: "            (70I10) "
                     ------------------------------------------------------------------------------------------

                     CONCN. BOUNDARY ARRAY    FOR LAYER 12 READ ON UNIT 31 USING FORMAT: "            (70I10) "
                     ------------------------------------------------------------------------------------------

                     CONCN. BOUNDARY ARRAY    FOR LAYER 13 READ ON UNIT 31 USING FORMAT: "            (70I10) "
                     ------------------------------------------------------------------------------------------

                     CONCN. BOUNDARY ARRAY    FOR LAYER 14 READ ON UNIT 31 USING FORMAT: "            (70I10) "
                     ------------------------------------------------------------------------------------------

                     CONCN. BOUNDARY ARRAY    FOR LAYER 15 READ ON UNIT 31 USING FORMAT: "            (70I10) "
                     ------------------------------------------------------------------------------------------

                     CONCN. BOUNDARY ARRAY    FOR LAYER 16 READ ON UNIT 31 USING FORMAT: "            (70I10) "
                     ------------------------------------------------------------------------------------------

                     CONCN. BOUNDARY ARRAY    FOR LAYER 17 READ ON UNIT 31 USING FORMAT: "            (70I10) "
                     ------------------------------------------------------------------------------------------

                     CONCN. BOUNDARY ARRAY    FOR LAYER 18 READ ON UNIT 31 USING FORMAT: "            (70I10) "
                     ------------------------------------------------------------------------------------------

                     CONCN. BOUNDARY ARRAY    FOR LAYER 19 READ ON UNIT 31 USING FORMAT: "            (70I10) "
                     ------------------------------------------------------------------------------------------

                     CONCN. BOUNDARY ARRAY    FOR LAYER 20 READ ON UNIT 31 USING FORMAT: "            (70I10) "
                     ------------------------------------------------------------------------------------------

                     CONCN. BOUNDARY ARRAY    FOR LAYER 21 READ ON UNIT 31 USING FORMAT: "            (70I10) "
                     ------------------------------------------------------------------------------------------

                     CONCN. BOUNDARY ARRAY    FOR LAYER 22 READ ON UNIT 31 USING FORMAT: "            (70I10) "
                     ------------------------------------------------------------------------------------------

                     CONCN. BOUNDARY ARRAY    FOR LAYER 23 READ ON UNIT 31 USING FORMAT: "            (70I10) "
                     ------------------------------------------------------------------------------------------

                     CONCN. BOUNDARY ARRAY    FOR LAYER 24 READ ON UNIT 31 USING FORMAT: "            (70I10) "
                     ------------------------------------------------------------------------------------------

                     CONCN. BOUNDARY ARRAY    FOR LAYER 25 READ ON UNIT 31 USING FORMAT: "            (70I10) "
                     ------------------------------------------------------------------------------------------

                     CONCN. BOUNDARY ARRAY    FOR LAYER 26 READ ON UNIT 31 USING FORMAT: "            (70I10) "
                     ------------------------------------------------------------------------------------------

                     CONCN. BOUNDARY ARRAY    FOR LAYER 27 READ ON UNIT 31 USING FORMAT: "            (70I10) "
                     ------------------------------------------------------------------------------------------

                     CONCN. BOUNDARY ARRAY    FOR LAYER 28 READ ON UNIT 31 USING FORMAT: "            (70I10) "
                     ------------------------------------------------------------------------------------------

                     CONCN. BOUNDARY ARRAY    FOR LAYER 29 READ ON UNIT 31 USING FORMAT: "            (70I10) "
                     ------------------------------------------------------------------------------------------

                     CONCN. BOUNDARY ARRAY    FOR LAYER 30 READ ON UNIT 31 USING FORMAT: "            (70I10) "
                     ------------------------------------------------------------------------------------------

                     CONCN. BOUNDARY ARRAY    FOR LAYER 31 READ ON UNIT 31 USING FORMAT: "            (70I10) "
                     ------------------------------------------------------------------------------------------

                     CONCN. BOUNDARY ARRAY    FOR LAYER 32 READ ON UNIT 31 USING FORMAT: "            (70I10) "
                     ------------------------------------------------------------------------------------------

                     CONCN. BOUNDARY ARRAY    FOR LAYER 33 READ ON UNIT 31 USING FORMAT: "            (70I10) "
                     ------------------------------------------------------------------------------------------

                     CONCN. BOUNDARY ARRAY    FOR LAYER 34 READ ON UNIT 31 USING FORMAT: "            (70I10) "
                     ------------------------------------------------------------------------------------------

                     CONCN. BOUNDARY ARRAY    FOR LAYER 35 READ ON UNIT 31 USING FORMAT: "            (70I10) "
                     ------------------------------------------------------------------------------------------

                     CONCN. BOUNDARY ARRAY    FOR LAYER 36 READ ON UNIT 31 USING FORMAT: "            (70I10) "
                     ------------------------------------------------------------------------------------------

                     CONCN. BOUNDARY ARRAY    FOR LAYER 37 READ ON UNIT 31 USING FORMAT: "            (70I10) "
                     ------------------------------------------------------------------------------------------

                     CONCN. BOUNDARY ARRAY    FOR LAYER 38 READ ON UNIT 31 USING FORMAT: "            (70I10) "
                     ------------------------------------------------------------------------------------------

                     CONCN. BOUNDARY ARRAY    FOR LAYER 39 READ ON UNIT 31 USING FORMAT: "            (70I10) "
                     ------------------------------------------------------------------------------------------

                     CONCN. BOUNDARY ARRAY    FOR LAYER 40 READ ON UNIT 31 USING FORMAT: "            (70I10) "
                     ------------------------------------------------------------------------------------------

                     INITIAL CONC.: COMP.  01 FOR LAYER  1 READ ON UNIT 31 USING FORMAT: "          (70E15.6) "
                     ------------------------------------------------------------------------------------------

                     INITIAL CONC.: COMP.  01 FOR LAYER  2 READ ON UNIT 31 USING FORMAT: "          (70E15.6) "
                     ------------------------------------------------------------------------------------------

                     INITIAL CONC.: COMP.  01 FOR LAYER  3 READ ON UNIT 31 USING FORMAT: "          (70E15.6) "
                     ------------------------------------------------------------------------------------------

                     INITIAL CONC.: COMP.  01 FOR LAYER  4 READ ON UNIT 31 USING FORMAT: "          (70E15.6) "
                     ------------------------------------------------------------------------------------------

                     INITIAL CONC.: COMP.  01 FOR LAYER  5 READ ON UNIT 31 USING FORMAT: "          (70E15.6) "
                     ------------------------------------------------------------------------------------------

                     INITIAL CONC.: COMP.  01 FOR LAYER  6 READ ON UNIT 31 USING FORMAT: "          (70E15.6) "
                     ------------------------------------------------------------------------------------------

                     INITIAL CONC.: COMP.  01 FOR LAYER  7 READ ON UNIT 31 USING FORMAT: "          (70E15.6) "
                     ------------------------------------------------------------------------------------------

                     INITIAL CONC.: COMP.  01 FOR LAYER  8 READ ON UNIT 31 USING FORMAT: "          (70E15.6) "
                     ------------------------------------------------------------------------------------------

                     INITIAL CONC.: COMP.  01 FOR LAYER  9 READ ON UNIT 31 USING FORMAT: "          (70E15.6) "
                     ------------------------------------------------------------------------------------------

                     INITIAL CONC.: COMP.  01 FOR LAYER 10 READ ON UNIT 31 USING FORMAT: "          (70E15.6) "
                     ------------------------------------------------------------------------------------------

                     INITIAL CONC.: COMP.  01 FOR LAYER 11 READ ON UNIT 31 USING FORMAT: "          (70E15.6) "
                     ------------------------------------------------------------------------------------------

                     INITIAL CONC.: COMP.  01 FOR LAYER 12 READ ON UNIT 31 USING FORMAT: "          (70E15.6) "
                     ------------------------------------------------------------------------------------------

                     INITIAL CONC.: COMP.  01 FOR LAYER 13 READ ON UNIT 31 USING FORMAT: "          (70E15.6) "
                     ------------------------------------------------------------------------------------------

                     INITIAL CONC.: COMP.  01 FOR LAYER 14 READ ON UNIT 31 USING FORMAT: "          (70E15.6) "
                     ------------------------------------------------------------------------------------------

                     INITIAL CONC.: COMP.  01 FOR LAYER 15 READ ON UNIT 31 USING FORMAT: "          (70E15.6) "
                     ------------------------------------------------------------------------------------------

                     INITIAL CONC.: COMP.  01 FOR LAYER 16 READ ON UNIT 31 USING FORMAT: "          (70E15.6) "
                     ------------------------------------------------------------------------------------------

                     INITIAL CONC.: COMP.  01 FOR LAYER 17 READ ON UNIT 31 USING FORMAT: "          (70E15.6) "
                     ------------------------------------------------------------------------------------------

                     INITIAL CONC.: COMP.  01 FOR LAYER 18 READ ON UNIT 31 USING FORMAT: "          (70E15.6) "
                     ------------------------------------------------------------------------------------------

                     INITIAL CONC.: COMP.  01 FOR LAYER 19 READ ON UNIT 31 USING FORMAT: "          (70E15.6) "
                     ------------------------------------------------------------------------------------------

                     INITIAL CONC.: COMP.  01 FOR LAYER 20 READ ON UNIT 31 USING FORMAT: "          (70E15.6) "
                     ------------------------------------------------------------------------------------------

                     INITIAL CONC.: COMP.  01 FOR LAYER 21 READ ON UNIT 31 USING FORMAT: "          (70E15.6) "
                     ------------------------------------------------------------------------------------------

                     INITIAL CONC.: COMP.  01 FOR LAYER 22 READ ON UNIT 31 USING FORMAT: "          (70E15.6) "
                     ------------------------------------------------------------------------------------------

                     INITIAL CONC.: COMP.  01 FOR LAYER 23 READ ON UNIT 31 USING FORMAT: "          (70E15.6) "
                     ------------------------------------------------------------------------------------------

                     INITIAL CONC.: COMP.  01 FOR LAYER 24 READ ON UNIT 31 USING FORMAT: "          (70E15.6) "
                     ------------------------------------------------------------------------------------------

                     INITIAL CONC.: COMP.  01 FOR LAYER 25 READ ON UNIT 31 USING FORMAT: "          (70E15.6) "
                     ------------------------------------------------------------------------------------------

                     INITIAL CONC.: COMP.  01 FOR LAYER 26 READ ON UNIT 31 USING FORMAT: "          (70E15.6) "
                     ------------------------------------------------------------------------------------------

                     INITIAL CONC.: COMP.  01 FOR LAYER 27 READ ON UNIT 31 USING FORMAT: "          (70E15.6) "
                     ------------------------------------------------------------------------------------------

                     INITIAL CONC.: COMP.  01 FOR LAYER 28 READ ON UNIT 31 USING FORMAT: "          (70E15.6) "
                     ------------------------------------------------------------------------------------------

                     INITIAL CONC.: COMP.  01 FOR LAYER 29 READ ON UNIT 31 USING FORMAT: "          (70E15.6) "
                     ------------------------------------------------------------------------------------------

                     INITIAL CONC.: COMP.  01 FOR LAYER 30 READ ON UNIT 31 USING FORMAT: "          (70E15.6) "
                     ------------------------------------------------------------------------------------------

                     INITIAL CONC.: COMP.  01 FOR LAYER 31 READ ON UNIT 31 USING FORMAT: "          (70E15.6) "
                     ------------------------------------------------------------------------------------------

                     INITIAL CONC.: COMP.  01 FOR LAYER 32 READ ON UNIT 31 USING FORMAT: "          (70E15.6) "
                     ------------------------------------------------------------------------------------------

                     INITIAL CONC.: COMP.  01 FOR LAYER 33 READ ON UNIT 31 USING FORMAT: "          (70E15.6) "
                     ------------------------------------------------------------------------------------------

                     INITIAL CONC.: COMP.  01 FOR LAYER 34 READ ON UNIT 31 USING FORMAT: "          (70E15.6) "
                     ------------------------------------------------------------------------------------------

                     INITIAL CONC.: COMP.  01 FOR LAYER 35 READ ON UNIT 31 USING FORMAT: "          (70E15.6) "
                     ------------------------------------------------------------------------------------------

                     INITIAL CONC.: COMP.  01 FOR LAYER 36 READ ON UNIT 31 USING FORMAT: "          (70E15.6) "
                     ------------------------------------------------------------------------------------------

                     INITIAL CONC.: COMP.  01 FOR LAYER 37 READ ON UNIT 31 USING FORMAT: "          (70E15.6) "
                     ------------------------------------------------------------------------------------------

                     INITIAL CONC.: COMP.  01 FOR LAYER 38 READ ON UNIT 31 USING FORMAT: "          (70E15.6) "
                     ------------------------------------------------------------------------------------------

                     INITIAL CONC.: COMP.  01 FOR LAYER 39 READ ON UNIT 31 USING FORMAT: "          (70E15.6) "
                     ------------------------------------------------------------------------------------------

                     INITIAL CONC.: COMP.  01 FOR LAYER 40 READ ON UNIT 31 USING FORMAT: "          (70E15.6) "
                     ------------------------------------------------------------------------------------------

 VALUE INDICATING INACTIVE CONCENTRATION CELLS =   0.1000000E+31
 MINIMUM SATURATED THICKNESS [THKMIN] ALLOWED =  0.0100 OF TOTAL CELL THICKNESS


 OUTPUT CONTROL OPTIONS
 ----------------------

 DO NOT PRINT CELL CONCENTRATION
 DO NOT PRINT PARTICLE NUMBER IN EACH CELL
 DO NOT PRINT RETARDATION FACTOR
 DO NOT PRINT DISPERSION COEFFICIENT
 SAVE DISSOLVED PHASE CONCENTRATIONS IN UNFORMATTED FILES [MT3Dnnn.UCN]
  FOR EACH SPECIES ON UNITS 201 AND ABOVE

 SIMULATION RESULTS ARE SAVED EVERY  10 TRANSPORT STEP(S)

 NUMBER OF OBSERVATION POINTS =    0

 SAVE ONE-LINE SUMMARY OF MASS BUDGETS IN FILES [MT3Dnnn.MAS]
  FOR EACH SPECIES ON UNITS 601 AND ABOVE, EVERY  1 TRANSPORT STEPS

 MAXIMUM LENGTH ALONG THE X (J) AXIS =   70.00000    
 MAXIMUM LENGTH ALONG THE Y (I) AXIS =   3.000000    
 MAXIMUM LENGTH ALONG THE Z (K) AXIS =   20.00000    


 ADVECTION SOLUTION OPTIONS
 --------------------------

 ADVECTION IS SOLVED WITH THE UPSTREAM FINITE DIFFERENCE SCHEME
 COURANT NUMBER ALLOWED IN SOLVING THE ADVECTION TERM = 0.750    


 DISPERSION INPUT PARAMETERS
 ---------------------------

                                       LONG. DISPERSIVITY (AL)  =   3.000000     FOR LAYER  1
                                       LONG. DISPERSIVITY (AL)  =   3.000000     FOR LAYER  2
                                       LONG. DISPERSIVITY (AL)  =   3.000000     FOR LAYER  3
                                       LONG. DISPERSIVITY (AL)  =   3.000000     FOR LAYER  4
                                       LONG. DISPERSIVITY (AL)  =   3.000000     FOR LAYER  5
                                       LONG. DISPERSIVITY (AL)  =   3.000000     FOR LAYER  6
                                       LONG. DISPERSIVITY (AL)  =   3.000000     FOR LAYER  7
                                       LONG. DISPERSIVITY (AL)  =   3.000000     FOR LAYER  8
                                       LONG. DISPERSIVITY (AL)  =   3.000000     FOR LAYER  9
                                       LONG. DISPERSIVITY (AL)  =   3.000000     FOR LAYER 10
                                       LONG. DISPERSIVITY (AL)  =   3.000000     FOR LAYER 11
                                       LONG. DISPERSIVITY (AL)  =   3.000000     FOR LAYER 12
                                       LONG. DISPERSIVITY (AL)  =   3.000000     FOR LAYER 13
                                       LONG. DISPERSIVITY (AL)  =   3.000000     FOR LAYER 14
                                       LONG. DISPERSIVITY (AL)  =   3.000000     FOR LAYER 15
                                       LONG. DISPERSIVITY (AL)  =   3.000000     FOR LAYER 16
                                       LONG. DISPERSIVITY (AL)  =   3.000000     FOR LAYER 17
                                       LONG. DISPERSIVITY (AL)  =   3.000000     FOR LAYER 18
                                       LONG. DISPERSIVITY (AL)  =   3.000000     FOR LAYER 19
                                       LONG. DISPERSIVITY (AL)  =   3.000000     FOR LAYER 20
                                       LONG. DISPERSIVITY (AL)  =   3.000000     FOR LAYER 21
                                       LONG. DISPERSIVITY (AL)  =   3.000000     FOR LAYER 22
                                       LONG. DISPERSIVITY (AL)  =   3.000000     FOR LAYER 23
                                       LONG. DISPERSIVITY (AL)  =   3.000000     FOR LAYER 24
                                       LONG. DISPERSIVITY (AL)  =   3.000000     FOR LAYER 25
                                       LONG. DISPERSIVITY (AL)  =   3.000000     FOR LAYER 26
                                       LONG. DISPERSIVITY (AL)  =   3.000000     FOR LAYER 27
                                       LONG. DISPERSIVITY (AL)  =   3.000000     FOR LAYER 28
                                       LONG. DISPERSIVITY (AL)  =   3.000000     FOR LAYER 29
                                       LONG. DISPERSIVITY (AL)  =   3.000000     FOR LAYER 30
                                       LONG. DISPERSIVITY (AL)  =   3.000000     FOR LAYER 31
                                       LONG. DISPERSIVITY (AL)  =   3.000000     FOR LAYER 32
                                       LONG. DISPERSIVITY (AL)  =   3.000000     FOR LAYER 33
                                       LONG. DISPERSIVITY (AL)  =   3.000000     FOR LAYER 34
                                       LONG. DISPERSIVITY (AL)  =   3.000000     FOR LAYER 35
                                       LONG. DISPERSIVITY (AL)  =   3.000000     FOR LAYER 36
                                       LONG. DISPERSIVITY (AL)  =   3.000000     FOR LAYER 37
                                       LONG. DISPERSIVITY (AL)  =   3.000000     FOR LAYER 38
                                       LONG. DISPERSIVITY (AL)  =   3.000000     FOR LAYER 39
                                       LONG. DISPERSIVITY (AL)  =   3.000000     FOR LAYER 40
                                       H. TRANS./LONG. DISP.    =  1.0000000    
                                       V. TRANS./LONG. DISP.    =  1.0000000    
                                       DIFFUSION COEFFICIENT    =   0.000000    



                                               SOLUTION BY THE GENERALIZED CONJUGATE GRADIENT METHOD
                                               -----------------------------------------------------
                                     MAXIMUM OUTER ITERATIONS ALLOWED FOR CLOSURE =        1
                                     MAXIMUM INNER ITERATIONS ALLOWED FOR CLOSURE =      500
                                                    PRECONDITIONING TYPE SELECTED =    1
                                                           ACCELERATION PARAMETER =    1.00000    
                                       CONCENTRATION CHANGE CRITERION FOR CLOSURE =    0.10000E-06
                                       GCG CONCENTRATION CHANGE PRINTOUT INTERVAL =      999


                                   ++++++++++++++++++++++++++++++++++++++++++++++++++++++++++++++
                                                       STRESS PERIOD NO.  001
                                   ++++++++++++++++++++++++++++++++++++++++++++++++++++++++++++++


 LENGTH OF CURRENT STRESS PERIOD =  1.0000000    
 NUMBER OF TIME STEPS FOR CURRENT STRESS PERIOD =  100
 TIME STEP MULTIPLIER USED IN FLOW SOLUTION =  1.0000000    
 USER-SPECIFIED TRANSPORT STEPSIZE =   0.000000    D   
 MAXIMUM NUMBER OF TRANSPORT STEPS ALLOWED  IN ONE FLOW TIME STEP =     50000
 MULTIPLIER FOR SUCCESSIVE TRANSPORT STEPS  [USED IN IMPLICIT SCHEMES] =     1.000
 MAXIMUM TRANSPORT STEP SIZE  [USED IN IMPLICIT SCHEMES] =   0.000000    D   
1
                            STRESS PERIOD NO.    1, LENGTH =  1.0000000    
                            -----------------------------------------------

                              NUMBER OF TIME STEPS =   100

                               MULTIPLIER FOR DELT =     1.000

                            INITIAL TIME STEP SIZE =  0.1000000E-01

 NO. OF POINT SINKS/SOURCES OF SPECIFIED CONCONCENTRATIONS =    0 IN STRESS PERIOD  1

 CHD NO.   LAYER   ROW   COL    START HEAD        END HEAD         
 ------------------------------------------------------------------
      1      1      1     31       20.00           20.00    
      2      1      1     32       20.00           20.00    
      3      1      1     33       20.00           20.00    
      4      1      1     34       20.00           20.00    
      5      1      1     35       20.00           20.00    
      6      1      1     36       20.00           20.00    
      7      1      1     37       20.00           20.00    
      8      1      1     38       20.00           20.00    
      9      1      1     39       20.00           20.00    
     10      1      1     40       20.00           20.00    
     11      1      1     41       20.00           20.00    
     12      1      1     42       20.00           20.00    
     13      1      1     43       20.00           20.00    
     14      1      1     44       20.00           20.00    
     15      1      1     45       20.00           20.00    
     16      1      1     46       20.00           20.00    
     17      1      1     47       20.00           20.00    
     18      1      1     48       20.00           20.00    
     19      1      1     49       20.00           20.00    
     20      1      1     50       20.00           20.00    
     21      1      1     51       20.00           20.00    
     22      1      1     52       20.00           20.00    
     23      1      1     53       20.00           20.00    
     24      1      1     54       20.00           20.00    
     25      1      1     55       20.00           20.00    
     26      1      1     56       20.00           20.00    
     27      1      1     57       20.00           20.00    
     28      1      1     58       20.00           20.00    
     29      1      1     59       20.00           20.00    
     30      1      1     60       20.00           20.00    
     31      1      1     61       20.00           20.00    
     32      1      1     62       20.00           20.00    
     33      1      1     63       20.00           20.00    
     34      1      1     64       20.00           20.00    
     35      1      1     65       20.00           20.00    
     36      1      1     66       20.00           20.00    
     37      1      1     67       20.00           20.00    
     38      1      1     68       20.00           20.00    
     39      1      1     69       20.00           20.00    
     40      1      1     70       20.00           20.00    
     41      1      2     31       20.00           20.00    
     42      1      2     32       20.00           20.00    
     43      1      2     33       20.00           20.00    
     44      1      2     34       20.00           20.00    
     45      1      2     35       20.00           20.00    
     46      1      2     36       20.00           20.00    
     47      1      2     37       20.00           20.00    
     48      1      2     38       20.00           20.00    
     49      1      2     39       20.00           20.00    
     50      1      2     40       20.00           20.00    
     51      1      2     41       20.00           20.00    
     52      1      2     42       20.00           20.00    
     53      1      2     43       20.00           20.00    
     54      1      2     44       20.00           20.00    
     55      1      2     45       20.00           20.00    
     56      1      2     46       20.00           20.00    
     57      1      2     47       20.00           20.00    
     58      1      2     48       20.00           20.00    
     59      1      2     49       20.00           20.00    
     60      1      2     50       20.00           20.00    
     61      1      2     51       20.00           20.00    
     62      1      2     52       20.00           20.00    
     63      1      2     53       20.00           20.00    
     64      1      2     54       20.00           20.00    
     65      1      2     55       20.00           20.00    
     66      1      2     56       20.00           20.00    
     67      1      2     57       20.00           20.00    
     68      1      2     58       20.00           20.00    
     69      1      2     59       20.00           20.00    
     70      1      2     60       20.00           20.00    
     71      1      2     61       20.00           20.00    
     72      1      2     62       20.00           20.00    
     73      1      2     63       20.00           20.00    
     74      1      2     64       20.00           20.00    
     75      1      2     65       20.00           20.00    
     76      1      2     66       20.00           20.00    
     77      1      2     67       20.00           20.00    
     78      1      2     68       20.00           20.00    
     79      1      2     69       20.00           20.00    
     80      1      2     70       20.00           20.00    
     81      1      3     31       20.00           20.00    
     82      1      3     32       20.00           20.00    
     83      1      3     33       20.00           20.00    
     84      1      3     34       20.00           20.00    
     85      1      3     35       20.00           20.00    
     86      1      3     36       20.00           20.00    
     87      1      3     37       20.00           20.00    
     88      1      3     38       20.00           20.00    
     89      1      3     39       20.00           20.00    
     90      1      3     40       20.00           20.00    
     91      1      3     41       20.00           20.00    
     92      1      3     42       20.00           20.00    
     93      1      3     43       20.00           20.00    
     94      1      3     44       20.00           20.00    
     95      1      3     45       20.00           20.00    
     96      1      3     46       20.00           20.00    
     97      1      3     47       20.00           20.00    
     98      1      3     48       20.00           20.00    
     99      1      3     49       20.00           20.00    
    100      1      3     50       20.00           20.00    
    101      1      3     51       20.00           20.00    
    102      1      3     52       20.00           20.00    
    103      1      3     53       20.00           20.00    
    104      1      3     54       20.00           20.00    
    105      1      3     55       20.00           20.00    
    106      1      3     56       20.00           20.00    
    107      1      3     57       20.00           20.00    
    108      1      3     58       20.00           20.00    
    109      1      3     59       20.00           20.00    
    110      1      3     60       20.00           20.00    
    111      1      3     61       20.00           20.00    
    112      1      3     62       20.00           20.00    
    113      1      3     63       20.00           20.00    
    114      1      3     64       20.00           20.00    
    115      1      3     65       20.00           20.00    
    116      1      3     66       20.00           20.00    
    117      1      3     67       20.00           20.00    
    118      1      3     68       20.00           20.00    
    119      1      3     69       20.00           20.00    
    120      1      3     70       20.00           20.00    


    120 TIME-VARIANT SPECIFIED-HEAD CELLS


                                          ================================================
                                                         FROM TIME =   0.0000     TO   0.10000E-01

 
 SOLVING FOR HEAD 
 FLOW MODEL IS TRANSIENT
 FLOW MODEL CONTAINS CONSTANT-HEAD CELLS


 MAXIMUM STEPSIZE DURING WHICH ANY PARTICLE CANNOT MOVE MORE THAN ONE CELL
 = 0.8253    (WHEN MIN. R.F.=1)  AT K=   3, I=   2, J=  33

 MAXIMUM STEPSIZE WHICH MEETS STABILITY CRITERION OF THE ADVECTION TERM
 (FOR PURE FINITE-DIFFERENCE OPTION, MIXELM=0) 
 = 0.5656    (WHEN MIN. R.F.=1)  AT K=   3, I=   2, J=  32


 TOTAL NUMBER OF POINT SOURCES/SINKS PRESENT IN THE FLOW MODEL =   240

 MAXIMUM STEPSIZE WHICH MEETS STABILITY CRITERION OF THE SINK & SOURCE TERM
 = 0.1000E+31(WHEN MIN. R.F.=1)  AT K=   0, I=   0, J=   0

 MAXIMUM STEPSIZE WHICH MEETS STABILITY CRITERION OF THE DISPERSION TERM
 = 0.3901E-01(WHEN MIN. R.F.=1)  AT K=   3, I=   2, J=  32


     1 CALLS TO GCG PACKAGE FOR TRANSPORT TIME STEP   1 IN FLOW TIME STEP   1 STRESS PERIOD   1
     3 TOTAL ITERATIONS

 OUTPUT CONTROL FOR STRESS PERIOD    1   TIME STEP   1
    SAVE HEAD FOR ALL LAYERS
    SAVE BUDGET
 
 SOLVING FOR HEAD 
 FLOW MODEL IS TRANSIENT
 FLOW MODEL CONTAINS CONSTANT-HEAD CELLS


 MAXIMUM STEPSIZE DURING WHICH ANY PARTICLE CANNOT MOVE MORE THAN ONE CELL
 = 0.7787    (WHEN MIN. R.F.=1)  AT K=   3, I=   2, J=  33

 MAXIMUM STEPSIZE WHICH MEETS STABILITY CRITERION OF THE ADVECTION TERM
 (FOR PURE FINITE-DIFFERENCE OPTION, MIXELM=0) 
 = 0.5334    (WHEN MIN. R.F.=1)  AT K=   3, I=   2, J=  32


 TOTAL NUMBER OF POINT SOURCES/SINKS PRESENT IN THE FLOW MODEL =   240

 MAXIMUM STEPSIZE WHICH MEETS STABILITY CRITERION OF THE SINK & SOURCE TERM
 = 0.1000E+31(WHEN MIN. R.F.=1)  AT K=   0, I=   0, J=   0

 MAXIMUM STEPSIZE WHICH MEETS STABILITY CRITERION OF THE DISPERSION TERM
 = 0.3679E-01(WHEN MIN. R.F.=1)  AT K=   3, I=   2, J=  32
     1 CALLS TO GCG PACKAGE FOR TRANSPORT TIME STEP   2 IN FLOW TIME STEP   1 STRESS PERIOD   1
     5 TOTAL ITERATIONS
  MAXIMUM CONCENTRATION CHANGES FOR EACH ITERATION:
  MAX. CHANGE LAYER,ROW,COL MAX. CHANGE LAYER,ROW,COL MAX. CHANGE LAYER,ROW,COL MAX. CHANGE LAYER,ROW,COL MAX. CHANGE LAYER,ROW,COL
 ------------------------------------------------------------------------------------------------------------------------------------
   0.7332E-02 (  2,  2, 33)  0.4741E-03 (  3,  2, 33)  0.3098E-04 (  4,  2, 33)  0.2128E-05 (  3,  2, 33)  0.7289E-07 (  2,  2, 33)
 UBDSV2 SAVING "   CONSTANT HEAD" ON UNIT  53 AT TIME STEP  1, STRESS PERIOD   1
 UBDSV1 SAVING "FLOW RIGHT FACE " ON UNIT  53 AT TIME STEP  1, STRESS PERIOD   1
 UBDSV1 SAVING "FLOW FRONT FACE " ON UNIT  53 AT TIME STEP  1, STRESS PERIOD   1
 UBDSV1 SAVING "FLOW LOWER FACE " ON UNIT  53 AT TIME STEP  1, STRESS PERIOD   1
 UBDSV1 SAVING "            DCDT" ON UNIT  53 AT TIME STEP  1, STRESS PERIOD   1

 HEAD WILL BE SAVED ON UNIT   51 AT END OF TIME STEP   1, STRESS PERIOD    1


                                          ================================================
                                                         FROM TIME =  0.10000E-01 TO   0.20000E-01

 
 SOLVING FOR HEAD 
 FLOW MODEL IS TRANSIENT
 FLOW MODEL CONTAINS CONSTANT-HEAD CELLS


 MAXIMUM STEPSIZE DURING WHICH ANY PARTICLE CANNOT MOVE MORE THAN ONE CELL
 = 0.7852    (WHEN MIN. R.F.=1)  AT K=   3, I=   2, J=  33

 MAXIMUM STEPSIZE WHICH MEETS STABILITY CRITERION OF THE ADVECTION TERM
 (FOR PURE FINITE-DIFFERENCE OPTION, MIXELM=0) 
 = 0.5375    (WHEN MIN. R.F.=1)  AT K=   3, I=   2, J=  32


 TOTAL NUMBER OF POINT SOURCES/SINKS PRESENT IN THE FLOW MODEL =   240

 MAXIMUM STEPSIZE WHICH MEETS STABILITY CRITERION OF THE SINK & SOURCE TERM
 = 0.1000E+31(WHEN MIN. R.F.=1)  AT K=   0, I=   0, J=   0

 MAXIMUM STEPSIZE WHICH MEETS STABILITY CRITERION OF THE DISPERSION TERM
 = 0.3707E-01(WHEN MIN. R.F.=1)  AT K=   3, I=   2, J=  32


     1 CALLS TO GCG PACKAGE FOR TRANSPORT TIME STEP   1 IN FLOW TIME STEP   2 STRESS PERIOD   1
     5 TOTAL ITERATIONS
  MAXIMUM CONCENTRATION CHANGES FOR EACH ITERATION:
  MAX. CHANGE LAYER,ROW,COL MAX. CHANGE LAYER,ROW,COL MAX. CHANGE LAYER,ROW,COL MAX. CHANGE LAYER,ROW,COL MAX. CHANGE LAYER,ROW,COL
 ------------------------------------------------------------------------------------------------------------------------------------
   0.7240E-02 (  2,  2, 33)  0.5313E-03 (  3,  2, 33)  0.3617E-04 (  4,  2, 33)  0.2632E-05 (  3,  2, 33)  0.9891E-07 (  2,  2, 33)

 NO OUTPUT CONTROL FOR STRESS PERIOD    1   TIME STEP   2


                                          ================================================
                                                         FROM TIME =  0.20000E-01 TO   0.30000E-01

 
 SOLVING FOR HEAD 
 FLOW MODEL IS TRANSIENT
 FLOW MODEL CONTAINS CONSTANT-HEAD CELLS


 MAXIMUM STEPSIZE DURING WHICH ANY PARTICLE CANNOT MOVE MORE THAN ONE CELL
 = 0.7861    (WHEN MIN. R.F.=1)  AT K=   3, I=   2, J=  33

 MAXIMUM STEPSIZE WHICH MEETS STABILITY CRITERION OF THE ADVECTION TERM
 (FOR PURE FINITE-DIFFERENCE OPTION, MIXELM=0) 
 = 0.5381    (WHEN MIN. R.F.=1)  AT K=   3, I=   2, J=  32


 TOTAL NUMBER OF POINT SOURCES/SINKS PRESENT IN THE FLOW MODEL =   240

 MAXIMUM STEPSIZE WHICH MEETS STABILITY CRITERION OF THE SINK & SOURCE TERM
 = 0.1000E+31(WHEN MIN. R.F.=1)  AT K=   0, I=   0, J=   0

 MAXIMUM STEPSIZE WHICH MEETS STABILITY CRITERION OF THE DISPERSION TERM
 = 0.3711E-01(WHEN MIN. R.F.=1)  AT K=   3, I=   2, J=  32


     1 CALLS TO GCG PACKAGE FOR TRANSPORT TIME STEP   1 IN FLOW TIME STEP   3 STRESS PERIOD   1
     5 TOTAL ITERATIONS
  MAXIMUM CONCENTRATION CHANGES FOR EACH ITERATION:
  MAX. CHANGE LAYER,ROW,COL MAX. CHANGE LAYER,ROW,COL MAX. CHANGE LAYER,ROW,COL MAX. CHANGE LAYER,ROW,COL MAX. CHANGE LAYER,ROW,COL
 ------------------------------------------------------------------------------------------------------------------------------------
   0.6543E-02 (  2,  2, 33)  0.5027E-03 (  3,  2, 33)  0.3253E-04 (  4,  2, 33)  0.2492E-05 (  3,  2, 33)  0.9407E-07 (  2,  2, 33)

 NO OUTPUT CONTROL FOR STRESS PERIOD    1   TIME STEP   3


                                          ================================================
                                                         FROM TIME =  0.30000E-01 TO   0.40000E-01

 
 SOLVING FOR HEAD 
 FLOW MODEL IS TRANSIENT
 FLOW MODEL CONTAINS CONSTANT-HEAD CELLS


 MAXIMUM STEPSIZE DURING WHICH ANY PARTICLE CANNOT MOVE MORE THAN ONE CELL
 = 0.7847    (WHEN MIN. R.F.=1)  AT K=   3, I=   2, J=  33

 MAXIMUM STEPSIZE WHICH MEETS STABILITY CRITERION OF THE ADVECTION TERM
 (FOR PURE FINITE-DIFFERENCE OPTION, MIXELM=0) 
 = 0.5371    (WHEN MIN. R.F.=1)  AT K=   3, I=   2, J=  32


 TOTAL NUMBER OF POINT SOURCES/SINKS PRESENT IN THE FLOW MODEL =   240

 MAXIMUM STEPSIZE WHICH MEETS STABILITY CRITERION OF THE SINK & SOURCE TERM
 = 0.1000E+31(WHEN MIN. R.F.=1)  AT K=   0, I=   0, J=   0

 MAXIMUM STEPSIZE WHICH MEETS STABILITY CRITERION OF THE DISPERSION TERM
 = 0.3704E-01(WHEN MIN. R.F.=1)  AT K=   3, I=   2, J=  32


     1 CALLS TO GCG PACKAGE FOR TRANSPORT TIME STEP   1 IN FLOW TIME STEP   4 STRESS PERIOD   1
     5 TOTAL ITERATIONS
  MAXIMUM CONCENTRATION CHANGES FOR EACH ITERATION:
  MAX. CHANGE LAYER,ROW,COL MAX. CHANGE LAYER,ROW,COL MAX. CHANGE LAYER,ROW,COL MAX. CHANGE LAYER,ROW,COL MAX. CHANGE LAYER,ROW,COL
 ------------------------------------------------------------------------------------------------------------------------------------
   0.6195E-02 (  2,  2, 34)  0.4921E-03 (  3,  2, 33)  0.3055E-04 (  4,  2, 33)  0.2432E-05 (  3,  2, 33)  0.9310E-07 (  2,  2, 33)

 NO OUTPUT CONTROL FOR STRESS PERIOD    1   TIME STEP   4


                                          ================================================
                                                         FROM TIME =  0.40000E-01 TO   0.50000E-01

 
 SOLVING FOR HEAD 
 FLOW MODEL IS TRANSIENT
 FLOW MODEL CONTAINS CONSTANT-HEAD CELLS


 MAXIMUM STEPSIZE DURING WHICH ANY PARTICLE CANNOT MOVE MORE THAN ONE CELL
 = 0.7841    (WHEN MIN. R.F.=1)  AT K=   3, I=   2, J=  33

 MAXIMUM STEPSIZE WHICH MEETS STABILITY CRITERION OF THE ADVECTION TERM
 (FOR PURE FINITE-DIFFERENCE OPTION, MIXELM=0) 
 = 0.5367    (WHEN MIN. R.F.=1)  AT K=   3, I=   2, J=  32


 TOTAL NUMBER OF POINT SOURCES/SINKS PRESENT IN THE FLOW MODEL =   240

 MAXIMUM STEPSIZE WHICH MEETS STABILITY CRITERION OF THE SINK & SOURCE TERM
 = 0.1000E+31(WHEN MIN. R.F.=1)  AT K=   0, I=   0, J=   0

 MAXIMUM STEPSIZE WHICH MEETS STABILITY CRITERION OF THE DISPERSION TERM
 = 0.3700E-01(WHEN MIN. R.F.=1)  AT K=   3, I=   2, J=  32


     1 CALLS TO GCG PACKAGE FOR TRANSPORT TIME STEP   1 IN FLOW TIME STEP   5 STRESS PERIOD   1
     5 TOTAL ITERATIONS
  MAXIMUM CONCENTRATION CHANGES FOR EACH ITERATION:
  MAX. CHANGE LAYER,ROW,COL MAX. CHANGE LAYER,ROW,COL MAX. CHANGE LAYER,ROW,COL MAX. CHANGE LAYER,ROW,COL MAX. CHANGE LAYER,ROW,COL
 ------------------------------------------------------------------------------------------------------------------------------------
   0.5874E-02 (  2,  2, 34)  0.4806E-03 (  3,  2, 33)  0.2868E-04 (  4,  2, 33)  0.2338E-05 (  3,  2, 33)  0.9014E-07 (  2,  2, 33)

 NO OUTPUT CONTROL FOR STRESS PERIOD    1   TIME STEP   5


                                          ================================================
                                                         FROM TIME =  0.50000E-01 TO   0.60000E-01

 
 SOLVING FOR HEAD 
 FLOW MODEL IS TRANSIENT
 FLOW MODEL CONTAINS CONSTANT-HEAD CELLS


 MAXIMUM STEPSIZE DURING WHICH ANY PARTICLE CANNOT MOVE MORE THAN ONE CELL
 = 0.7839    (WHEN MIN. R.F.=1)  AT K=   3, I=   2, J=  33

 MAXIMUM STEPSIZE WHICH MEETS STABILITY CRITERION OF THE ADVECTION TERM
 (FOR PURE FINITE-DIFFERENCE OPTION, MIXELM=0) 
 = 0.5366    (WHEN MIN. R.F.=1)  AT K=   3, I=   2, J=  32


 TOTAL NUMBER OF POINT SOURCES/SINKS PRESENT IN THE FLOW MODEL =   240

 MAXIMUM STEPSIZE WHICH MEETS STABILITY CRITERION OF THE SINK & SOURCE TERM
 = 0.1000E+31(WHEN MIN. R.F.=1)  AT K=   0, I=   0, J=   0

 MAXIMUM STEPSIZE WHICH MEETS STABILITY CRITERION OF THE DISPERSION TERM
 = 0.3699E-01(WHEN MIN. R.F.=1)  AT K=   3, I=   2, J=  32


     1 CALLS TO GCG PACKAGE FOR TRANSPORT TIME STEP   1 IN FLOW TIME STEP   6 STRESS PERIOD   1
     5 TOTAL ITERATIONS
  MAXIMUM CONCENTRATION CHANGES FOR EACH ITERATION:
  MAX. CHANGE LAYER,ROW,COL MAX. CHANGE LAYER,ROW,COL MAX. CHANGE LAYER,ROW,COL MAX. CHANGE LAYER,ROW,COL MAX. CHANGE LAYER,ROW,COL
 ------------------------------------------------------------------------------------------------------------------------------------
   0.5548E-02 (  2,  2, 34)  0.4672E-03 (  3,  2, 33)  0.2692E-04 (  4,  2, 33)  0.2246E-05 (  3,  2, 33)  0.8700E-07 (  2,  2, 33)

 NO OUTPUT CONTROL FOR STRESS PERIOD    1   TIME STEP   6


                                          ================================================
                                                         FROM TIME =  0.60000E-01 TO   0.70000E-01

 
 SOLVING FOR HEAD 
 FLOW MODEL IS TRANSIENT
 FLOW MODEL CONTAINS CONSTANT-HEAD CELLS


 MAXIMUM STEPSIZE DURING WHICH ANY PARTICLE CANNOT MOVE MORE THAN ONE CELL
 = 0.7836    (WHEN MIN. R.F.=1)  AT K=   3, I=   2, J=  33

 MAXIMUM STEPSIZE WHICH MEETS STABILITY CRITERION OF THE ADVECTION TERM
 (FOR PURE FINITE-DIFFERENCE OPTION, MIXELM=0) 
 = 0.5365    (WHEN MIN. R.F.=1)  AT K=   3, I=   2, J=  32


 TOTAL NUMBER OF POINT SOURCES/SINKS PRESENT IN THE FLOW MODEL =   240

 MAXIMUM STEPSIZE WHICH MEETS STABILITY CRITERION OF THE SINK & SOURCE TERM
 = 0.1000E+31(WHEN MIN. R.F.=1)  AT K=   0, I=   0, J=   0

 MAXIMUM STEPSIZE WHICH MEETS STABILITY CRITERION OF THE DISPERSION TERM
 = 0.3698E-01(WHEN MIN. R.F.=1)  AT K=   3, I=   2, J=  32


     1 CALLS TO GCG PACKAGE FOR TRANSPORT TIME STEP   1 IN FLOW TIME STEP   7 STRESS PERIOD   1
     5 TOTAL ITERATIONS
  MAXIMUM CONCENTRATION CHANGES FOR EACH ITERATION:
  MAX. CHANGE LAYER,ROW,COL MAX. CHANGE LAYER,ROW,COL MAX. CHANGE LAYER,ROW,COL MAX. CHANGE LAYER,ROW,COL MAX. CHANGE LAYER,ROW,COL
 ------------------------------------------------------------------------------------------------------------------------------------
   0.5258E-02 (  2,  2, 34)  0.4551E-03 (  3,  2, 33)  0.2550E-04 (  4,  2, 33)  0.2175E-05 (  3,  2, 33)  0.8465E-07 (  2,  2, 33)

 NO OUTPUT CONTROL FOR STRESS PERIOD    1   TIME STEP   7


                                          ================================================
                                                         FROM TIME =  0.70000E-01 TO   0.80000E-01

 
 SOLVING FOR HEAD 
 FLOW MODEL IS TRANSIENT
 FLOW MODEL CONTAINS CONSTANT-HEAD CELLS


 MAXIMUM STEPSIZE DURING WHICH ANY PARTICLE CANNOT MOVE MORE THAN ONE CELL
 = 0.7834    (WHEN MIN. R.F.=1)  AT K=   3, I=   2, J=  33

 MAXIMUM STEPSIZE WHICH MEETS STABILITY CRITERION OF THE ADVECTION TERM
 (FOR PURE FINITE-DIFFERENCE OPTION, MIXELM=0) 
 = 0.5363    (WHEN MIN. R.F.=1)  AT K=   3, I=   2, J=  32


 TOTAL NUMBER OF POINT SOURCES/SINKS PRESENT IN THE FLOW MODEL =   240

 MAXIMUM STEPSIZE WHICH MEETS STABILITY CRITERION OF THE SINK & SOURCE TERM
 = 0.1000E+31(WHEN MIN. R.F.=1)  AT K=   0, I=   0, J=   0

 MAXIMUM STEPSIZE WHICH MEETS STABILITY CRITERION OF THE DISPERSION TERM
 = 0.3696E-01(WHEN MIN. R.F.=1)  AT K=   3, I=   2, J=  32


     1 CALLS TO GCG PACKAGE FOR TRANSPORT TIME STEP   1 IN FLOW TIME STEP   8 STRESS PERIOD   1
     5 TOTAL ITERATIONS
  MAXIMUM CONCENTRATION CHANGES FOR EACH ITERATION:
  MAX. CHANGE LAYER,ROW,COL MAX. CHANGE LAYER,ROW,COL MAX. CHANGE LAYER,ROW,COL MAX. CHANGE LAYER,ROW,COL MAX. CHANGE LAYER,ROW,COL
 ------------------------------------------------------------------------------------------------------------------------------------
   0.5071E-02 (  2,  1, 39)  0.4444E-03 (  3,  2, 33)  0.2434E-04 (  4,  2, 33)  0.2117E-05 (  3,  2, 33)  0.8263E-07 (  2,  2, 33)

 NO OUTPUT CONTROL FOR STRESS PERIOD    1   TIME STEP   8


                                          ================================================
                                                         FROM TIME =  0.80000E-01 TO   0.90000E-01

 
 SOLVING FOR HEAD 
 FLOW MODEL IS TRANSIENT
 FLOW MODEL CONTAINS CONSTANT-HEAD CELLS


 MAXIMUM STEPSIZE DURING WHICH ANY PARTICLE CANNOT MOVE MORE THAN ONE CELL
 = 0.7832    (WHEN MIN. R.F.=1)  AT K=   3, I=   2, J=  33

 MAXIMUM STEPSIZE WHICH MEETS STABILITY CRITERION OF THE ADVECTION TERM
 (FOR PURE FINITE-DIFFERENCE OPTION, MIXELM=0) 
 = 0.5362    (WHEN MIN. R.F.=1)  AT K=   3, I=   2, J=  32


 TOTAL NUMBER OF POINT SOURCES/SINKS PRESENT IN THE FLOW MODEL =   240

 MAXIMUM STEPSIZE WHICH MEETS STABILITY CRITERION OF THE SINK & SOURCE TERM
 = 0.1000E+31(WHEN MIN. R.F.=1)  AT K=   0, I=   0, J=   0

 MAXIMUM STEPSIZE WHICH MEETS STABILITY CRITERION OF THE DISPERSION TERM
 = 0.3696E-01(WHEN MIN. R.F.=1)  AT K=   3, I=   2, J=  32


     1 CALLS TO GCG PACKAGE FOR TRANSPORT TIME STEP   1 IN FLOW TIME STEP   9 STRESS PERIOD   1
     5 TOTAL ITERATIONS
  MAXIMUM CONCENTRATION CHANGES FOR EACH ITERATION:
  MAX. CHANGE LAYER,ROW,COL MAX. CHANGE LAYER,ROW,COL MAX. CHANGE LAYER,ROW,COL MAX. CHANGE LAYER,ROW,COL MAX. CHANGE LAYER,ROW,COL
 ------------------------------------------------------------------------------------------------------------------------------------
   0.4953E-02 (  2,  1, 39)  0.4341E-03 (  3,  2, 33)  0.2334E-04 (  4,  2, 33)  0.2065E-05 (  3,  2, 33)  0.8074E-07 (  2,  2, 33)

 NO OUTPUT CONTROL FOR STRESS PERIOD    1   TIME STEP   9


                                          ================================================
                                                         FROM TIME =  0.90000E-01 TO   0.10000E+00

 
 SOLVING FOR HEAD 
 FLOW MODEL IS TRANSIENT
 FLOW MODEL CONTAINS CONSTANT-HEAD CELLS


 MAXIMUM STEPSIZE DURING WHICH ANY PARTICLE CANNOT MOVE MORE THAN ONE CELL
 = 0.7830    (WHEN MIN. R.F.=1)  AT K=   3, I=   2, J=  33

 MAXIMUM STEPSIZE WHICH MEETS STABILITY CRITERION OF THE ADVECTION TERM
 (FOR PURE FINITE-DIFFERENCE OPTION, MIXELM=0) 
 = 0.5362    (WHEN MIN. R.F.=1)  AT K=   3, I=   2, J=  32


 TOTAL NUMBER OF POINT SOURCES/SINKS PRESENT IN THE FLOW MODEL =   240

 MAXIMUM STEPSIZE WHICH MEETS STABILITY CRITERION OF THE SINK & SOURCE TERM
 = 0.1000E+31(WHEN MIN. R.F.=1)  AT K=   0, I=   0, J=   0

 MAXIMUM STEPSIZE WHICH MEETS STABILITY CRITERION OF THE DISPERSION TERM
 = 0.3695E-01(WHEN MIN. R.F.=1)  AT K=   3, I=   2, J=  32


     1 CALLS TO GCG PACKAGE FOR TRANSPORT TIME STEP   1 IN FLOW TIME STEP  10 STRESS PERIOD   1
     5 TOTAL ITERATIONS
  MAXIMUM CONCENTRATION CHANGES FOR EACH ITERATION:
  MAX. CHANGE LAYER,ROW,COL MAX. CHANGE LAYER,ROW,COL MAX. CHANGE LAYER,ROW,COL MAX. CHANGE LAYER,ROW,COL MAX. CHANGE LAYER,ROW,COL
 ------------------------------------------------------------------------------------------------------------------------------------
   0.4842E-02 (  2,  1, 40)  0.4243E-03 (  3,  2, 33)  0.2249E-04 (  4,  2, 33)  0.2021E-05 (  3,  2, 33)  0.7906E-07 (  2,  2, 33)

 NO OUTPUT CONTROL FOR STRESS PERIOD    1   TIME STEP  10


                                          ================================================
                                                         FROM TIME =  0.10000E+00 TO   0.11000    

 
 SOLVING FOR HEAD 
 FLOW MODEL IS TRANSIENT
 FLOW MODEL CONTAINS CONSTANT-HEAD CELLS


 MAXIMUM STEPSIZE DURING WHICH ANY PARTICLE CANNOT MOVE MORE THAN ONE CELL
 = 0.7829    (WHEN MIN. R.F.=1)  AT K=   3, I=   2, J=  33

 MAXIMUM STEPSIZE WHICH MEETS STABILITY CRITERION OF THE ADVECTION TERM
 (FOR PURE FINITE-DIFFERENCE OPTION, MIXELM=0) 
 = 0.5362    (WHEN MIN. R.F.=1)  AT K=   3, I=   2, J=  32


 TOTAL NUMBER OF POINT SOURCES/SINKS PRESENT IN THE FLOW MODEL =   240

 MAXIMUM STEPSIZE WHICH MEETS STABILITY CRITERION OF THE SINK & SOURCE TERM
 = 0.1000E+31(WHEN MIN. R.F.=1)  AT K=   0, I=   0, J=   0

 MAXIMUM STEPSIZE WHICH MEETS STABILITY CRITERION OF THE DISPERSION TERM
 = 0.3695E-01(WHEN MIN. R.F.=1)  AT K=   3, I=   2, J=  32


     1 CALLS TO GCG PACKAGE FOR TRANSPORT TIME STEP   1 IN FLOW TIME STEP  11 STRESS PERIOD   1
     5 TOTAL ITERATIONS
  MAXIMUM CONCENTRATION CHANGES FOR EACH ITERATION:
  MAX. CHANGE LAYER,ROW,COL MAX. CHANGE LAYER,ROW,COL MAX. CHANGE LAYER,ROW,COL MAX. CHANGE LAYER,ROW,COL MAX. CHANGE LAYER,ROW,COL
 ------------------------------------------------------------------------------------------------------------------------------------
   0.4741E-02 (  2,  1, 40)  0.4151E-03 (  3,  2, 33)  0.2177E-04 (  4,  2, 33)  0.1982E-05 (  3,  2, 33)  0.7757E-07 (  2,  2, 33)

 NO OUTPUT CONTROL FOR STRESS PERIOD    1   TIME STEP  11


                                          ================================================
                                                         FROM TIME =  0.11000     TO   0.12000    

 
 SOLVING FOR HEAD 
 FLOW MODEL IS TRANSIENT
 FLOW MODEL CONTAINS CONSTANT-HEAD CELLS


 MAXIMUM STEPSIZE DURING WHICH ANY PARTICLE CANNOT MOVE MORE THAN ONE CELL
 = 0.7829    (WHEN MIN. R.F.=1)  AT K=   3, I=   2, J=  33

 MAXIMUM STEPSIZE WHICH MEETS STABILITY CRITERION OF THE ADVECTION TERM
 (FOR PURE FINITE-DIFFERENCE OPTION, MIXELM=0) 
 = 0.5362    (WHEN MIN. R.F.=1)  AT K=   3, I=   2, J=  32


 TOTAL NUMBER OF POINT SOURCES/SINKS PRESENT IN THE FLOW MODEL =   240

 MAXIMUM STEPSIZE WHICH MEETS STABILITY CRITERION OF THE SINK & SOURCE TERM
 = 0.1000E+31(WHEN MIN. R.F.=1)  AT K=   0, I=   0, J=   0

 MAXIMUM STEPSIZE WHICH MEETS STABILITY CRITERION OF THE DISPERSION TERM
 = 0.3694E-01(WHEN MIN. R.F.=1)  AT K=   3, I=   2, J=  32


     1 CALLS TO GCG PACKAGE FOR TRANSPORT TIME STEP   1 IN FLOW TIME STEP  12 STRESS PERIOD   1
     5 TOTAL ITERATIONS
  MAXIMUM CONCENTRATION CHANGES FOR EACH ITERATION:
  MAX. CHANGE LAYER,ROW,COL MAX. CHANGE LAYER,ROW,COL MAX. CHANGE LAYER,ROW,COL MAX. CHANGE LAYER,ROW,COL MAX. CHANGE LAYER,ROW,COL
 ------------------------------------------------------------------------------------------------------------------------------------
   0.4642E-02 (  2,  1, 40)  0.4063E-03 (  3,  2, 33)  0.2114E-04 (  4,  2, 33)  0.1948E-05 (  3,  2, 33)  0.7620E-07 (  2,  2, 33)

 NO OUTPUT CONTROL FOR STRESS PERIOD    1   TIME STEP  12


                                          ================================================
                                                         FROM TIME =  0.12000     TO   0.13000    

 
 SOLVING FOR HEAD 
 FLOW MODEL IS TRANSIENT
 FLOW MODEL CONTAINS CONSTANT-HEAD CELLS


 MAXIMUM STEPSIZE DURING WHICH ANY PARTICLE CANNOT MOVE MORE THAN ONE CELL
 = 0.7828    (WHEN MIN. R.F.=1)  AT K=   3, I=   2, J=  33

 MAXIMUM STEPSIZE WHICH MEETS STABILITY CRITERION OF THE ADVECTION TERM
 (FOR PURE FINITE-DIFFERENCE OPTION, MIXELM=0) 
 = 0.5363    (WHEN MIN. R.F.=1)  AT K=   3, I=   2, J=  32


 TOTAL NUMBER OF POINT SOURCES/SINKS PRESENT IN THE FLOW MODEL =   240

 MAXIMUM STEPSIZE WHICH MEETS STABILITY CRITERION OF THE SINK & SOURCE TERM
 = 0.1000E+31(WHEN MIN. R.F.=1)  AT K=   0, I=   0, J=   0

 MAXIMUM STEPSIZE WHICH MEETS STABILITY CRITERION OF THE DISPERSION TERM
 = 0.3694E-01(WHEN MIN. R.F.=1)  AT K=   3, I=   2, J=  32


     1 CALLS TO GCG PACKAGE FOR TRANSPORT TIME STEP   1 IN FLOW TIME STEP  13 STRESS PERIOD   1
     5 TOTAL ITERATIONS
  MAXIMUM CONCENTRATION CHANGES FOR EACH ITERATION:
  MAX. CHANGE LAYER,ROW,COL MAX. CHANGE LAYER,ROW,COL MAX. CHANGE LAYER,ROW,COL MAX. CHANGE LAYER,ROW,COL MAX. CHANGE LAYER,ROW,COL
 ------------------------------------------------------------------------------------------------------------------------------------
   0.4545E-02 (  2,  1, 40)  0.3980E-03 (  3,  2, 33)  0.2059E-04 (  4,  2, 33)  0.1918E-05 (  3,  2, 33)  0.7495E-07 (  2,  2, 33)

 NO OUTPUT CONTROL FOR STRESS PERIOD    1   TIME STEP  13


                                          ================================================
                                                         FROM TIME =  0.13000     TO   0.14000    

 
 SOLVING FOR HEAD 
 FLOW MODEL IS TRANSIENT
 FLOW MODEL CONTAINS CONSTANT-HEAD CELLS


 MAXIMUM STEPSIZE DURING WHICH ANY PARTICLE CANNOT MOVE MORE THAN ONE CELL
 = 0.7828    (WHEN MIN. R.F.=1)  AT K=   3, I=   2, J=  33

 MAXIMUM STEPSIZE WHICH MEETS STABILITY CRITERION OF THE ADVECTION TERM
 (FOR PURE FINITE-DIFFERENCE OPTION, MIXELM=0) 
 = 0.5363    (WHEN MIN. R.F.=1)  AT K=   3, I=   2, J=  32


 TOTAL NUMBER OF POINT SOURCES/SINKS PRESENT IN THE FLOW MODEL =   240

 MAXIMUM STEPSIZE WHICH MEETS STABILITY CRITERION OF THE SINK & SOURCE TERM
 = 0.1000E+31(WHEN MIN. R.F.=1)  AT K=   0, I=   0, J=   0

 MAXIMUM STEPSIZE WHICH MEETS STABILITY CRITERION OF THE DISPERSION TERM
 = 0.3695E-01(WHEN MIN. R.F.=1)  AT K=   3, I=   2, J=  32


     1 CALLS TO GCG PACKAGE FOR TRANSPORT TIME STEP   1 IN FLOW TIME STEP  14 STRESS PERIOD   1
     5 TOTAL ITERATIONS
  MAXIMUM CONCENTRATION CHANGES FOR EACH ITERATION:
  MAX. CHANGE LAYER,ROW,COL MAX. CHANGE LAYER,ROW,COL MAX. CHANGE LAYER,ROW,COL MAX. CHANGE LAYER,ROW,COL MAX. CHANGE LAYER,ROW,COL
 ------------------------------------------------------------------------------------------------------------------------------------
   0.4450E-02 (  2,  1, 40)  0.3900E-03 (  3,  2, 33)  0.2010E-04 (  4,  2, 33)  0.1891E-05 (  3,  2, 33)  0.7378E-07 (  2,  2, 33)

 NO OUTPUT CONTROL FOR STRESS PERIOD    1   TIME STEP  14


                                          ================================================
                                                         FROM TIME =  0.14000     TO   0.15000    

 
 SOLVING FOR HEAD 
 FLOW MODEL IS TRANSIENT
 FLOW MODEL CONTAINS CONSTANT-HEAD CELLS


 MAXIMUM STEPSIZE DURING WHICH ANY PARTICLE CANNOT MOVE MORE THAN ONE CELL
 = 0.7829    (WHEN MIN. R.F.=1)  AT K=   3, I=   2, J=  33

 MAXIMUM STEPSIZE WHICH MEETS STABILITY CRITERION OF THE ADVECTION TERM
 (FOR PURE FINITE-DIFFERENCE OPTION, MIXELM=0) 
 = 0.5364    (WHEN MIN. R.F.=1)  AT K=   3, I=   2, J=  32


 TOTAL NUMBER OF POINT SOURCES/SINKS PRESENT IN THE FLOW MODEL =   240

 MAXIMUM STEPSIZE WHICH MEETS STABILITY CRITERION OF THE SINK & SOURCE TERM
 = 0.1000E+31(WHEN MIN. R.F.=1)  AT K=   0, I=   0, J=   0

 MAXIMUM STEPSIZE WHICH MEETS STABILITY CRITERION OF THE DISPERSION TERM
 = 0.3695E-01(WHEN MIN. R.F.=1)  AT K=   3, I=   2, J=  32


     1 CALLS TO GCG PACKAGE FOR TRANSPORT TIME STEP   1 IN FLOW TIME STEP  15 STRESS PERIOD   1
     5 TOTAL ITERATIONS
  MAXIMUM CONCENTRATION CHANGES FOR EACH ITERATION:
  MAX. CHANGE LAYER,ROW,COL MAX. CHANGE LAYER,ROW,COL MAX. CHANGE LAYER,ROW,COL MAX. CHANGE LAYER,ROW,COL MAX. CHANGE LAYER,ROW,COL
 ------------------------------------------------------------------------------------------------------------------------------------
   0.4358E-02 (  2,  1, 40)  0.3824E-03 (  3,  2, 33)  0.1967E-04 (  4,  2, 33)  0.1866E-05 (  3,  2, 33)  0.7268E-07 (  2,  2, 33)

 NO OUTPUT CONTROL FOR STRESS PERIOD    1   TIME STEP  15


                                          ================================================
                                                         FROM TIME =  0.15000     TO   0.16000    

 
 SOLVING FOR HEAD 
 FLOW MODEL IS TRANSIENT
 FLOW MODEL CONTAINS CONSTANT-HEAD CELLS


 MAXIMUM STEPSIZE DURING WHICH ANY PARTICLE CANNOT MOVE MORE THAN ONE CELL
 = 0.7829    (WHEN MIN. R.F.=1)  AT K=   3, I=   2, J=  33

 MAXIMUM STEPSIZE WHICH MEETS STABILITY CRITERION OF THE ADVECTION TERM
 (FOR PURE FINITE-DIFFERENCE OPTION, MIXELM=0) 
 = 0.5365    (WHEN MIN. R.F.=1)  AT K=   3, I=   2, J=  32


 TOTAL NUMBER OF POINT SOURCES/SINKS PRESENT IN THE FLOW MODEL =   240

 MAXIMUM STEPSIZE WHICH MEETS STABILITY CRITERION OF THE SINK & SOURCE TERM
 = 0.1000E+31(WHEN MIN. R.F.=1)  AT K=   0, I=   0, J=   0

 MAXIMUM STEPSIZE WHICH MEETS STABILITY CRITERION OF THE DISPERSION TERM
 = 0.3695E-01(WHEN MIN. R.F.=1)  AT K=   3, I=   2, J=  32


     1 CALLS TO GCG PACKAGE FOR TRANSPORT TIME STEP   1 IN FLOW TIME STEP  16 STRESS PERIOD   1
     5 TOTAL ITERATIONS
  MAXIMUM CONCENTRATION CHANGES FOR EACH ITERATION:
  MAX. CHANGE LAYER,ROW,COL MAX. CHANGE LAYER,ROW,COL MAX. CHANGE LAYER,ROW,COL MAX. CHANGE LAYER,ROW,COL MAX. CHANGE LAYER,ROW,COL
 ------------------------------------------------------------------------------------------------------------------------------------
   0.4275E-02 (  2,  1, 41)  0.3751E-03 (  3,  2, 33)  0.1927E-04 (  4,  2, 33)  0.1842E-05 (  3,  2, 33)  0.7164E-07 (  2,  2, 33)

 NO OUTPUT CONTROL FOR STRESS PERIOD    1   TIME STEP  16


                                          ================================================
                                                         FROM TIME =  0.16000     TO   0.17000    

 
 SOLVING FOR HEAD 
 FLOW MODEL IS TRANSIENT
 FLOW MODEL CONTAINS CONSTANT-HEAD CELLS


 MAXIMUM STEPSIZE DURING WHICH ANY PARTICLE CANNOT MOVE MORE THAN ONE CELL
 = 0.7830    (WHEN MIN. R.F.=1)  AT K=   3, I=   2, J=  33

 MAXIMUM STEPSIZE WHICH MEETS STABILITY CRITERION OF THE ADVECTION TERM
 (FOR PURE FINITE-DIFFERENCE OPTION, MIXELM=0) 
 = 0.5366    (WHEN MIN. R.F.=1)  AT K=   3, I=   2, J=  32


 TOTAL NUMBER OF POINT SOURCES/SINKS PRESENT IN THE FLOW MODEL =   240

 MAXIMUM STEPSIZE WHICH MEETS STABILITY CRITERION OF THE SINK & SOURCE TERM
 = 0.1000E+31(WHEN MIN. R.F.=1)  AT K=   0, I=   0, J=   0

 MAXIMUM STEPSIZE WHICH MEETS STABILITY CRITERION OF THE DISPERSION TERM
 = 0.3696E-01(WHEN MIN. R.F.=1)  AT K=   3, I=   2, J=  32


     1 CALLS TO GCG PACKAGE FOR TRANSPORT TIME STEP   1 IN FLOW TIME STEP  17 STRESS PERIOD   1
     5 TOTAL ITERATIONS
  MAXIMUM CONCENTRATION CHANGES FOR EACH ITERATION:
  MAX. CHANGE LAYER,ROW,COL MAX. CHANGE LAYER,ROW,COL MAX. CHANGE LAYER,ROW,COL MAX. CHANGE LAYER,ROW,COL MAX. CHANGE LAYER,ROW,COL
 ------------------------------------------------------------------------------------------------------------------------------------
   0.4194E-02 (  2,  1, 41)  0.3681E-03 (  3,  2, 33)  0.1891E-04 (  4,  2, 33)  0.1820E-05 (  3,  2, 33)  0.7064E-07 (  2,  2, 33)

 NO OUTPUT CONTROL FOR STRESS PERIOD    1   TIME STEP  17


                                          ================================================
                                                         FROM TIME =  0.17000     TO   0.18000    

 
 SOLVING FOR HEAD 
 FLOW MODEL IS TRANSIENT
 FLOW MODEL CONTAINS CONSTANT-HEAD CELLS


 MAXIMUM STEPSIZE DURING WHICH ANY PARTICLE CANNOT MOVE MORE THAN ONE CELL
 = 0.7831    (WHEN MIN. R.F.=1)  AT K=   3, I=   2, J=  33

 MAXIMUM STEPSIZE WHICH MEETS STABILITY CRITERION OF THE ADVECTION TERM
 (FOR PURE FINITE-DIFFERENCE OPTION, MIXELM=0) 
 = 0.5367    (WHEN MIN. R.F.=1)  AT K=   3, I=   2, J=  32


 TOTAL NUMBER OF POINT SOURCES/SINKS PRESENT IN THE FLOW MODEL =   240

 MAXIMUM STEPSIZE WHICH MEETS STABILITY CRITERION OF THE SINK & SOURCE TERM
 = 0.1000E+31(WHEN MIN. R.F.=1)  AT K=   0, I=   0, J=   0

 MAXIMUM STEPSIZE WHICH MEETS STABILITY CRITERION OF THE DISPERSION TERM
 = 0.3697E-01(WHEN MIN. R.F.=1)  AT K=   3, I=   2, J=  32


     1 CALLS TO GCG PACKAGE FOR TRANSPORT TIME STEP   1 IN FLOW TIME STEP  18 STRESS PERIOD   1
     5 TOTAL ITERATIONS
  MAXIMUM CONCENTRATION CHANGES FOR EACH ITERATION:
  MAX. CHANGE LAYER,ROW,COL MAX. CHANGE LAYER,ROW,COL MAX. CHANGE LAYER,ROW,COL MAX. CHANGE LAYER,ROW,COL MAX. CHANGE LAYER,ROW,COL
 ------------------------------------------------------------------------------------------------------------------------------------
   0.4114E-02 (  2,  1, 41)  0.3614E-03 (  3,  2, 33)  0.1857E-04 (  4,  2, 33)  0.1799E-05 (  3,  2, 33)  0.6969E-07 (  2,  2, 33)

 NO OUTPUT CONTROL FOR STRESS PERIOD    1   TIME STEP  18


                                          ================================================
                                                         FROM TIME =  0.18000     TO   0.19000    

 
 SOLVING FOR HEAD 
 FLOW MODEL IS TRANSIENT
 FLOW MODEL CONTAINS CONSTANT-HEAD CELLS


 MAXIMUM STEPSIZE DURING WHICH ANY PARTICLE CANNOT MOVE MORE THAN ONE CELL
 = 0.7832    (WHEN MIN. R.F.=1)  AT K=   3, I=   2, J=  33

 MAXIMUM STEPSIZE WHICH MEETS STABILITY CRITERION OF THE ADVECTION TERM
 (FOR PURE FINITE-DIFFERENCE OPTION, MIXELM=0) 
 = 0.5369    (WHEN MIN. R.F.=1)  AT K=   3, I=   2, J=  32


 TOTAL NUMBER OF POINT SOURCES/SINKS PRESENT IN THE FLOW MODEL =   240

 MAXIMUM STEPSIZE WHICH MEETS STABILITY CRITERION OF THE SINK & SOURCE TERM
 = 0.1000E+31(WHEN MIN. R.F.=1)  AT K=   0, I=   0, J=   0

 MAXIMUM STEPSIZE WHICH MEETS STABILITY CRITERION OF THE DISPERSION TERM
 = 0.3697E-01(WHEN MIN. R.F.=1)  AT K=   3, I=   2, J=  32


     1 CALLS TO GCG PACKAGE FOR TRANSPORT TIME STEP   1 IN FLOW TIME STEP  19 STRESS PERIOD   1
     5 TOTAL ITERATIONS
  MAXIMUM CONCENTRATION CHANGES FOR EACH ITERATION:
  MAX. CHANGE LAYER,ROW,COL MAX. CHANGE LAYER,ROW,COL MAX. CHANGE LAYER,ROW,COL MAX. CHANGE LAYER,ROW,COL MAX. CHANGE LAYER,ROW,COL
 ------------------------------------------------------------------------------------------------------------------------------------
   0.4036E-02 (  2,  1, 41)  0.3550E-03 (  3,  2, 33)  0.1826E-04 (  4,  2, 33)  0.1779E-05 (  3,  2, 33)  0.6877E-07 (  2,  2, 33)

 NO OUTPUT CONTROL FOR STRESS PERIOD    1   TIME STEP  19


                                          ================================================
                                                         FROM TIME =  0.19000     TO   0.20000    

 
 SOLVING FOR HEAD 
 FLOW MODEL IS TRANSIENT
 FLOW MODEL CONTAINS CONSTANT-HEAD CELLS


 MAXIMUM STEPSIZE DURING WHICH ANY PARTICLE CANNOT MOVE MORE THAN ONE CELL
 = 0.7834    (WHEN MIN. R.F.=1)  AT K=   3, I=   2, J=  33

 MAXIMUM STEPSIZE WHICH MEETS STABILITY CRITERION OF THE ADVECTION TERM
 (FOR PURE FINITE-DIFFERENCE OPTION, MIXELM=0) 
 = 0.5370    (WHEN MIN. R.F.=1)  AT K=   3, I=   2, J=  32


 TOTAL NUMBER OF POINT SOURCES/SINKS PRESENT IN THE FLOW MODEL =   240

 MAXIMUM STEPSIZE WHICH MEETS STABILITY CRITERION OF THE SINK & SOURCE TERM
 = 0.1000E+31(WHEN MIN. R.F.=1)  AT K=   0, I=   0, J=   0

 MAXIMUM STEPSIZE WHICH MEETS STABILITY CRITERION OF THE DISPERSION TERM
 = 0.3698E-01(WHEN MIN. R.F.=1)  AT K=   3, I=   2, J=  32


     1 CALLS TO GCG PACKAGE FOR TRANSPORT TIME STEP   1 IN FLOW TIME STEP  20 STRESS PERIOD   1
     5 TOTAL ITERATIONS
  MAXIMUM CONCENTRATION CHANGES FOR EACH ITERATION:
  MAX. CHANGE LAYER,ROW,COL MAX. CHANGE LAYER,ROW,COL MAX. CHANGE LAYER,ROW,COL MAX. CHANGE LAYER,ROW,COL MAX. CHANGE LAYER,ROW,COL
 ------------------------------------------------------------------------------------------------------------------------------------
   0.3961E-02 (  2,  1, 41)  0.3488E-03 (  3,  2, 33)  0.1797E-04 (  4,  2, 33)  0.1759E-05 (  3,  2, 33)  0.6789E-07 (  2,  2, 33)

 NO OUTPUT CONTROL FOR STRESS PERIOD    1   TIME STEP  20


                                          ================================================
                                                         FROM TIME =  0.20000     TO   0.21000    

 
 SOLVING FOR HEAD 
 FLOW MODEL IS TRANSIENT
 FLOW MODEL CONTAINS CONSTANT-HEAD CELLS


 MAXIMUM STEPSIZE DURING WHICH ANY PARTICLE CANNOT MOVE MORE THAN ONE CELL
 = 0.7835    (WHEN MIN. R.F.=1)  AT K=   3, I=   2, J=  33

 MAXIMUM STEPSIZE WHICH MEETS STABILITY CRITERION OF THE ADVECTION TERM
 (FOR PURE FINITE-DIFFERENCE OPTION, MIXELM=0) 
 = 0.5371    (WHEN MIN. R.F.=1)  AT K=   3, I=   2, J=  32


 TOTAL NUMBER OF POINT SOURCES/SINKS PRESENT IN THE FLOW MODEL =   240

 MAXIMUM STEPSIZE WHICH MEETS STABILITY CRITERION OF THE SINK & SOURCE TERM
 = 0.1000E+31(WHEN MIN. R.F.=1)  AT K=   0, I=   0, J=   0

 MAXIMUM STEPSIZE WHICH MEETS STABILITY CRITERION OF THE DISPERSION TERM
 = 0.3699E-01(WHEN MIN. R.F.=1)  AT K=   3, I=   2, J=  32


     1 CALLS TO GCG PACKAGE FOR TRANSPORT TIME STEP   1 IN FLOW TIME STEP  21 STRESS PERIOD   1
     5 TOTAL ITERATIONS
  MAXIMUM CONCENTRATION CHANGES FOR EACH ITERATION:
  MAX. CHANGE LAYER,ROW,COL MAX. CHANGE LAYER,ROW,COL MAX. CHANGE LAYER,ROW,COL MAX. CHANGE LAYER,ROW,COL MAX. CHANGE LAYER,ROW,COL
 ------------------------------------------------------------------------------------------------------------------------------------
   0.3886E-02 (  2,  1, 41)  0.3428E-03 (  3,  2, 33)  0.1769E-04 (  4,  2, 33)  0.1740E-05 (  3,  2, 33)  0.6703E-07 (  2,  2, 33)

 NO OUTPUT CONTROL FOR STRESS PERIOD    1   TIME STEP  21


                                          ================================================
                                                         FROM TIME =  0.21000     TO   0.22000    

 
 SOLVING FOR HEAD 
 FLOW MODEL IS TRANSIENT
 FLOW MODEL CONTAINS CONSTANT-HEAD CELLS


 MAXIMUM STEPSIZE DURING WHICH ANY PARTICLE CANNOT MOVE MORE THAN ONE CELL
 = 0.7837    (WHEN MIN. R.F.=1)  AT K=   3, I=   2, J=  33

 MAXIMUM STEPSIZE WHICH MEETS STABILITY CRITERION OF THE ADVECTION TERM
 (FOR PURE FINITE-DIFFERENCE OPTION, MIXELM=0) 
 = 0.5373    (WHEN MIN. R.F.=1)  AT K=   3, I=   2, J=  32


 TOTAL NUMBER OF POINT SOURCES/SINKS PRESENT IN THE FLOW MODEL =   240

 MAXIMUM STEPSIZE WHICH MEETS STABILITY CRITERION OF THE SINK & SOURCE TERM
 = 0.1000E+31(WHEN MIN. R.F.=1)  AT K=   0, I=   0, J=   0

 MAXIMUM STEPSIZE WHICH MEETS STABILITY CRITERION OF THE DISPERSION TERM
 = 0.3700E-01(WHEN MIN. R.F.=1)  AT K=   3, I=   2, J=  32


     1 CALLS TO GCG PACKAGE FOR TRANSPORT TIME STEP   1 IN FLOW TIME STEP  22 STRESS PERIOD   1
     5 TOTAL ITERATIONS
  MAXIMUM CONCENTRATION CHANGES FOR EACH ITERATION:
  MAX. CHANGE LAYER,ROW,COL MAX. CHANGE LAYER,ROW,COL MAX. CHANGE LAYER,ROW,COL MAX. CHANGE LAYER,ROW,COL MAX. CHANGE LAYER,ROW,COL
 ------------------------------------------------------------------------------------------------------------------------------------
   0.3814E-02 (  2,  1, 41)  0.3370E-03 (  3,  2, 33)  0.1742E-04 (  4,  2, 33)  0.1721E-05 (  3,  2, 33)  0.6621E-07 (  2,  2, 33)

 NO OUTPUT CONTROL FOR STRESS PERIOD    1   TIME STEP  22


                                          ================================================
                                                         FROM TIME =  0.22000     TO   0.23000    

 
 SOLVING FOR HEAD 
 FLOW MODEL IS TRANSIENT
 FLOW MODEL CONTAINS CONSTANT-HEAD CELLS


 MAXIMUM STEPSIZE DURING WHICH ANY PARTICLE CANNOT MOVE MORE THAN ONE CELL
 = 0.7839    (WHEN MIN. R.F.=1)  AT K=   3, I=   2, J=  33

 MAXIMUM STEPSIZE WHICH MEETS STABILITY CRITERION OF THE ADVECTION TERM
 (FOR PURE FINITE-DIFFERENCE OPTION, MIXELM=0) 
 = 0.5375    (WHEN MIN. R.F.=1)  AT K=   3, I=   2, J=  32


 TOTAL NUMBER OF POINT SOURCES/SINKS PRESENT IN THE FLOW MODEL =   240

 MAXIMUM STEPSIZE WHICH MEETS STABILITY CRITERION OF THE SINK & SOURCE TERM
 = 0.1000E+31(WHEN MIN. R.F.=1)  AT K=   0, I=   0, J=   0

 MAXIMUM STEPSIZE WHICH MEETS STABILITY CRITERION OF THE DISPERSION TERM
 = 0.3701E-01(WHEN MIN. R.F.=1)  AT K=   3, I=   2, J=  32


     1 CALLS TO GCG PACKAGE FOR TRANSPORT TIME STEP   1 IN FLOW TIME STEP  23 STRESS PERIOD   1
     5 TOTAL ITERATIONS
  MAXIMUM CONCENTRATION CHANGES FOR EACH ITERATION:
  MAX. CHANGE LAYER,ROW,COL MAX. CHANGE LAYER,ROW,COL MAX. CHANGE LAYER,ROW,COL MAX. CHANGE LAYER,ROW,COL MAX. CHANGE LAYER,ROW,COL
 ------------------------------------------------------------------------------------------------------------------------------------
   0.3747E-02 (  2,  1, 42)  0.3315E-03 (  3,  2, 33)  0.1717E-04 (  4,  2, 33)  0.1703E-05 (  3,  2, 33)  0.6540E-07 (  2,  2, 33)

 NO OUTPUT CONTROL FOR STRESS PERIOD    1   TIME STEP  23


                                          ================================================
                                                         FROM TIME =  0.23000     TO   0.24000    

 
 SOLVING FOR HEAD 
 FLOW MODEL IS TRANSIENT
 FLOW MODEL CONTAINS CONSTANT-HEAD CELLS


 MAXIMUM STEPSIZE DURING WHICH ANY PARTICLE CANNOT MOVE MORE THAN ONE CELL
 = 0.7841    (WHEN MIN. R.F.=1)  AT K=   3, I=   2, J=  33

 MAXIMUM STEPSIZE WHICH MEETS STABILITY CRITERION OF THE ADVECTION TERM
 (FOR PURE FINITE-DIFFERENCE OPTION, MIXELM=0) 
 = 0.5376    (WHEN MIN. R.F.=1)  AT K=   3, I=   2, J=  32


 TOTAL NUMBER OF POINT SOURCES/SINKS PRESENT IN THE FLOW MODEL =   240

 MAXIMUM STEPSIZE WHICH MEETS STABILITY CRITERION OF THE SINK & SOURCE TERM
 = 0.1000E+31(WHEN MIN. R.F.=1)  AT K=   0, I=   0, J=   0

 MAXIMUM STEPSIZE WHICH MEETS STABILITY CRITERION OF THE DISPERSION TERM
 = 0.3702E-01(WHEN MIN. R.F.=1)  AT K=   3, I=   2, J=  32


     1 CALLS TO GCG PACKAGE FOR TRANSPORT TIME STEP   1 IN FLOW TIME STEP  24 STRESS PERIOD   1
     5 TOTAL ITERATIONS
  MAXIMUM CONCENTRATION CHANGES FOR EACH ITERATION:
  MAX. CHANGE LAYER,ROW,COL MAX. CHANGE LAYER,ROW,COL MAX. CHANGE LAYER,ROW,COL MAX. CHANGE LAYER,ROW,COL MAX. CHANGE LAYER,ROW,COL
 ------------------------------------------------------------------------------------------------------------------------------------
   0.3683E-02 (  2,  1, 42)  0.3261E-03 (  3,  2, 33)  0.1693E-04 (  4,  2, 33)  0.1685E-05 (  3,  2, 33)  0.6462E-07 (  2,  2, 33)

 NO OUTPUT CONTROL FOR STRESS PERIOD    1   TIME STEP  24


                                          ================================================
                                                         FROM TIME =  0.24000     TO   0.25000    

 
 SOLVING FOR HEAD 
 FLOW MODEL IS TRANSIENT
 FLOW MODEL CONTAINS CONSTANT-HEAD CELLS


 MAXIMUM STEPSIZE DURING WHICH ANY PARTICLE CANNOT MOVE MORE THAN ONE CELL
 = 0.7843    (WHEN MIN. R.F.=1)  AT K=   3, I=   2, J=  33

 MAXIMUM STEPSIZE WHICH MEETS STABILITY CRITERION OF THE ADVECTION TERM
 (FOR PURE FINITE-DIFFERENCE OPTION, MIXELM=0) 
 = 0.5378    (WHEN MIN. R.F.=1)  AT K=   3, I=   2, J=  32


 TOTAL NUMBER OF POINT SOURCES/SINKS PRESENT IN THE FLOW MODEL =   240

 MAXIMUM STEPSIZE WHICH MEETS STABILITY CRITERION OF THE SINK & SOURCE TERM
 = 0.1000E+31(WHEN MIN. R.F.=1)  AT K=   0, I=   0, J=   0

 MAXIMUM STEPSIZE WHICH MEETS STABILITY CRITERION OF THE DISPERSION TERM
 = 0.3703E-01(WHEN MIN. R.F.=1)  AT K=   3, I=   2, J=  32


     1 CALLS TO GCG PACKAGE FOR TRANSPORT TIME STEP   1 IN FLOW TIME STEP  25 STRESS PERIOD   1
     5 TOTAL ITERATIONS
  MAXIMUM CONCENTRATION CHANGES FOR EACH ITERATION:
  MAX. CHANGE LAYER,ROW,COL MAX. CHANGE LAYER,ROW,COL MAX. CHANGE LAYER,ROW,COL MAX. CHANGE LAYER,ROW,COL MAX. CHANGE LAYER,ROW,COL
 ------------------------------------------------------------------------------------------------------------------------------------
   0.3620E-02 (  2,  1, 42)  0.3210E-03 (  3,  2, 33)  0.1670E-04 (  4,  2, 33)  0.1667E-05 (  3,  2, 33)  0.6386E-07 (  2,  2, 33)

 NO OUTPUT CONTROL FOR STRESS PERIOD    1   TIME STEP  25


                                          ================================================
                                                         FROM TIME =  0.25000     TO   0.26000    

 
 SOLVING FOR HEAD 
 FLOW MODEL IS TRANSIENT
 FLOW MODEL CONTAINS CONSTANT-HEAD CELLS


 MAXIMUM STEPSIZE DURING WHICH ANY PARTICLE CANNOT MOVE MORE THAN ONE CELL
 = 0.7845    (WHEN MIN. R.F.=1)  AT K=   3, I=   2, J=  33

 MAXIMUM STEPSIZE WHICH MEETS STABILITY CRITERION OF THE ADVECTION TERM
 (FOR PURE FINITE-DIFFERENCE OPTION, MIXELM=0) 
 = 0.5380    (WHEN MIN. R.F.=1)  AT K=   3, I=   2, J=  32


 TOTAL NUMBER OF POINT SOURCES/SINKS PRESENT IN THE FLOW MODEL =   240

 MAXIMUM STEPSIZE WHICH MEETS STABILITY CRITERION OF THE SINK & SOURCE TERM
 = 0.1000E+31(WHEN MIN. R.F.=1)  AT K=   0, I=   0, J=   0

 MAXIMUM STEPSIZE WHICH MEETS STABILITY CRITERION OF THE DISPERSION TERM
 = 0.3704E-01(WHEN MIN. R.F.=1)  AT K=   3, I=   2, J=  32


     1 CALLS TO GCG PACKAGE FOR TRANSPORT TIME STEP   1 IN FLOW TIME STEP  26 STRESS PERIOD   1
     5 TOTAL ITERATIONS
  MAXIMUM CONCENTRATION CHANGES FOR EACH ITERATION:
  MAX. CHANGE LAYER,ROW,COL MAX. CHANGE LAYER,ROW,COL MAX. CHANGE LAYER,ROW,COL MAX. CHANGE LAYER,ROW,COL MAX. CHANGE LAYER,ROW,COL
 ------------------------------------------------------------------------------------------------------------------------------------
   0.3558E-02 (  2,  1, 42)  0.3160E-03 (  3,  2, 33)  0.1648E-04 (  4,  2, 33)  0.1649E-05 (  3,  2, 33)  0.6313E-07 (  2,  2, 33)

 NO OUTPUT CONTROL FOR STRESS PERIOD    1   TIME STEP  26


                                          ================================================
                                                         FROM TIME =  0.26000     TO   0.27000    

 
 SOLVING FOR HEAD 
 FLOW MODEL IS TRANSIENT
 FLOW MODEL CONTAINS CONSTANT-HEAD CELLS


 MAXIMUM STEPSIZE DURING WHICH ANY PARTICLE CANNOT MOVE MORE THAN ONE CELL
 = 0.7847    (WHEN MIN. R.F.=1)  AT K=   3, I=   2, J=  33

 MAXIMUM STEPSIZE WHICH MEETS STABILITY CRITERION OF THE ADVECTION TERM
 (FOR PURE FINITE-DIFFERENCE OPTION, MIXELM=0) 
 = 0.5382    (WHEN MIN. R.F.=1)  AT K=   3, I=   2, J=  32


 TOTAL NUMBER OF POINT SOURCES/SINKS PRESENT IN THE FLOW MODEL =   240

 MAXIMUM STEPSIZE WHICH MEETS STABILITY CRITERION OF THE SINK & SOURCE TERM
 = 0.1000E+31(WHEN MIN. R.F.=1)  AT K=   0, I=   0, J=   0

 MAXIMUM STEPSIZE WHICH MEETS STABILITY CRITERION OF THE DISPERSION TERM
 = 0.3705E-01(WHEN MIN. R.F.=1)  AT K=   3, I=   2, J=  32


     1 CALLS TO GCG PACKAGE FOR TRANSPORT TIME STEP   1 IN FLOW TIME STEP  27 STRESS PERIOD   1
     5 TOTAL ITERATIONS
  MAXIMUM CONCENTRATION CHANGES FOR EACH ITERATION:
  MAX. CHANGE LAYER,ROW,COL MAX. CHANGE LAYER,ROW,COL MAX. CHANGE LAYER,ROW,COL MAX. CHANGE LAYER,ROW,COL MAX. CHANGE LAYER,ROW,COL
 ------------------------------------------------------------------------------------------------------------------------------------
   0.3498E-02 (  2,  1, 42)  0.3111E-03 (  3,  2, 33)  0.1626E-04 (  4,  2, 33)  0.1632E-05 (  3,  2, 33)  0.6241E-07 (  2,  2, 33)

 NO OUTPUT CONTROL FOR STRESS PERIOD    1   TIME STEP  27


                                          ================================================
                                                         FROM TIME =  0.27000     TO   0.28000    

 
 SOLVING FOR HEAD 
 FLOW MODEL IS TRANSIENT
 FLOW MODEL CONTAINS CONSTANT-HEAD CELLS


 MAXIMUM STEPSIZE DURING WHICH ANY PARTICLE CANNOT MOVE MORE THAN ONE CELL
 = 0.7849    (WHEN MIN. R.F.=1)  AT K=   3, I=   2, J=  33

 MAXIMUM STEPSIZE WHICH MEETS STABILITY CRITERION OF THE ADVECTION TERM
 (FOR PURE FINITE-DIFFERENCE OPTION, MIXELM=0) 
 = 0.5383    (WHEN MIN. R.F.=1)  AT K=   3, I=   2, J=  32


 TOTAL NUMBER OF POINT SOURCES/SINKS PRESENT IN THE FLOW MODEL =   240

 MAXIMUM STEPSIZE WHICH MEETS STABILITY CRITERION OF THE SINK & SOURCE TERM
 = 0.1000E+31(WHEN MIN. R.F.=1)  AT K=   0, I=   0, J=   0

 MAXIMUM STEPSIZE WHICH MEETS STABILITY CRITERION OF THE DISPERSION TERM
 = 0.3706E-01(WHEN MIN. R.F.=1)  AT K=   3, I=   2, J=  32


     1 CALLS TO GCG PACKAGE FOR TRANSPORT TIME STEP   1 IN FLOW TIME STEP  28 STRESS PERIOD   1
     5 TOTAL ITERATIONS
  MAXIMUM CONCENTRATION CHANGES FOR EACH ITERATION:
  MAX. CHANGE LAYER,ROW,COL MAX. CHANGE LAYER,ROW,COL MAX. CHANGE LAYER,ROW,COL MAX. CHANGE LAYER,ROW,COL MAX. CHANGE LAYER,ROW,COL
 ------------------------------------------------------------------------------------------------------------------------------------
   0.3438E-02 (  2,  1, 42)  0.3065E-03 (  3,  2, 33)  0.1605E-04 (  4,  2, 33)  0.1615E-05 (  3,  2, 33)  0.6172E-07 (  2,  2, 33)

 NO OUTPUT CONTROL FOR STRESS PERIOD    1   TIME STEP  28


                                          ================================================
                                                         FROM TIME =  0.28000     TO   0.29000    

 
 SOLVING FOR HEAD 
 FLOW MODEL IS TRANSIENT
 FLOW MODEL CONTAINS CONSTANT-HEAD CELLS


 MAXIMUM STEPSIZE DURING WHICH ANY PARTICLE CANNOT MOVE MORE THAN ONE CELL
 = 0.7851    (WHEN MIN. R.F.=1)  AT K=   3, I=   2, J=  33

 MAXIMUM STEPSIZE WHICH MEETS STABILITY CRITERION OF THE ADVECTION TERM
 (FOR PURE FINITE-DIFFERENCE OPTION, MIXELM=0) 
 = 0.5385    (WHEN MIN. R.F.=1)  AT K=   3, I=   2, J=  32


 TOTAL NUMBER OF POINT SOURCES/SINKS PRESENT IN THE FLOW MODEL =   240

 MAXIMUM STEPSIZE WHICH MEETS STABILITY CRITERION OF THE SINK & SOURCE TERM
 = 0.1000E+31(WHEN MIN. R.F.=1)  AT K=   0, I=   0, J=   0

 MAXIMUM STEPSIZE WHICH MEETS STABILITY CRITERION OF THE DISPERSION TERM
 = 0.3708E-01(WHEN MIN. R.F.=1)  AT K=   3, I=   2, J=  32


     1 CALLS TO GCG PACKAGE FOR TRANSPORT TIME STEP   1 IN FLOW TIME STEP  29 STRESS PERIOD   1
     5 TOTAL ITERATIONS
  MAXIMUM CONCENTRATION CHANGES FOR EACH ITERATION:
  MAX. CHANGE LAYER,ROW,COL MAX. CHANGE LAYER,ROW,COL MAX. CHANGE LAYER,ROW,COL MAX. CHANGE LAYER,ROW,COL MAX. CHANGE LAYER,ROW,COL
 ------------------------------------------------------------------------------------------------------------------------------------
   0.3381E-02 (  2,  1, 42)  0.3020E-03 (  3,  2, 33)  0.1585E-04 (  4,  2, 33)  0.1598E-05 (  3,  2, 33)  0.6104E-07 (  2,  2, 33)

 NO OUTPUT CONTROL FOR STRESS PERIOD    1   TIME STEP  29


                                          ================================================
                                                         FROM TIME =  0.29000     TO   0.30000    

 
 SOLVING FOR HEAD 
 FLOW MODEL IS TRANSIENT
 FLOW MODEL CONTAINS CONSTANT-HEAD CELLS


 MAXIMUM STEPSIZE DURING WHICH ANY PARTICLE CANNOT MOVE MORE THAN ONE CELL
 = 0.7854    (WHEN MIN. R.F.=1)  AT K=   3, I=   2, J=  33

 MAXIMUM STEPSIZE WHICH MEETS STABILITY CRITERION OF THE ADVECTION TERM
 (FOR PURE FINITE-DIFFERENCE OPTION, MIXELM=0) 
 = 0.5387    (WHEN MIN. R.F.=1)  AT K=   3, I=   2, J=  32


 TOTAL NUMBER OF POINT SOURCES/SINKS PRESENT IN THE FLOW MODEL =   240

 MAXIMUM STEPSIZE WHICH MEETS STABILITY CRITERION OF THE SINK & SOURCE TERM
 = 0.1000E+31(WHEN MIN. R.F.=1)  AT K=   0, I=   0, J=   0

 MAXIMUM STEPSIZE WHICH MEETS STABILITY CRITERION OF THE DISPERSION TERM
 = 0.3709E-01(WHEN MIN. R.F.=1)  AT K=   3, I=   2, J=  32


     1 CALLS TO GCG PACKAGE FOR TRANSPORT TIME STEP   1 IN FLOW TIME STEP  30 STRESS PERIOD   1
     5 TOTAL ITERATIONS
  MAXIMUM CONCENTRATION CHANGES FOR EACH ITERATION:
  MAX. CHANGE LAYER,ROW,COL MAX. CHANGE LAYER,ROW,COL MAX. CHANGE LAYER,ROW,COL MAX. CHANGE LAYER,ROW,COL MAX. CHANGE LAYER,ROW,COL
 ------------------------------------------------------------------------------------------------------------------------------------
   0.3324E-02 (  2,  1, 42)  0.2976E-03 (  3,  2, 33)  0.1565E-04 (  4,  2, 33)  0.1582E-05 (  3,  2, 33)  0.6038E-07 (  2,  2, 33)

 NO OUTPUT CONTROL FOR STRESS PERIOD    1   TIME STEP  30


                                          ================================================
                                                         FROM TIME =  0.30000     TO   0.31000    

 
 SOLVING FOR HEAD 
 FLOW MODEL IS TRANSIENT
 FLOW MODEL CONTAINS CONSTANT-HEAD CELLS


 MAXIMUM STEPSIZE DURING WHICH ANY PARTICLE CANNOT MOVE MORE THAN ONE CELL
 = 0.7856    (WHEN MIN. R.F.=1)  AT K=   3, I=   2, J=  33

 MAXIMUM STEPSIZE WHICH MEETS STABILITY CRITERION OF THE ADVECTION TERM
 (FOR PURE FINITE-DIFFERENCE OPTION, MIXELM=0) 
 = 0.5389    (WHEN MIN. R.F.=1)  AT K=   3, I=   2, J=  32


 TOTAL NUMBER OF POINT SOURCES/SINKS PRESENT IN THE FLOW MODEL =   240

 MAXIMUM STEPSIZE WHICH MEETS STABILITY CRITERION OF THE SINK & SOURCE TERM
 = 0.1000E+31(WHEN MIN. R.F.=1)  AT K=   0, I=   0, J=   0

 MAXIMUM STEPSIZE WHICH MEETS STABILITY CRITERION OF THE DISPERSION TERM
 = 0.3710E-01(WHEN MIN. R.F.=1)  AT K=   3, I=   2, J=  32


     1 CALLS TO GCG PACKAGE FOR TRANSPORT TIME STEP   1 IN FLOW TIME STEP  31 STRESS PERIOD   1
     5 TOTAL ITERATIONS
  MAXIMUM CONCENTRATION CHANGES FOR EACH ITERATION:
  MAX. CHANGE LAYER,ROW,COL MAX. CHANGE LAYER,ROW,COL MAX. CHANGE LAYER,ROW,COL MAX. CHANGE LAYER,ROW,COL MAX. CHANGE LAYER,ROW,COL
 ------------------------------------------------------------------------------------------------------------------------------------
   0.3269E-02 (  2,  1, 42)  0.2934E-03 (  3,  2, 33)  0.1546E-04 (  4,  2, 33)  0.1566E-05 (  3,  2, 33)  0.5974E-07 (  2,  2, 33)

 NO OUTPUT CONTROL FOR STRESS PERIOD    1   TIME STEP  31


                                          ================================================
                                                         FROM TIME =  0.31000     TO   0.32000    

 
 SOLVING FOR HEAD 
 FLOW MODEL IS TRANSIENT
 FLOW MODEL CONTAINS CONSTANT-HEAD CELLS


 MAXIMUM STEPSIZE DURING WHICH ANY PARTICLE CANNOT MOVE MORE THAN ONE CELL
 = 0.7859    (WHEN MIN. R.F.=1)  AT K=   3, I=   2, J=  33

 MAXIMUM STEPSIZE WHICH MEETS STABILITY CRITERION OF THE ADVECTION TERM
 (FOR PURE FINITE-DIFFERENCE OPTION, MIXELM=0) 
 = 0.5391    (WHEN MIN. R.F.=1)  AT K=   3, I=   2, J=  32


 TOTAL NUMBER OF POINT SOURCES/SINKS PRESENT IN THE FLOW MODEL =   240

 MAXIMUM STEPSIZE WHICH MEETS STABILITY CRITERION OF THE SINK & SOURCE TERM
 = 0.1000E+31(WHEN MIN. R.F.=1)  AT K=   0, I=   0, J=   0

 MAXIMUM STEPSIZE WHICH MEETS STABILITY CRITERION OF THE DISPERSION TERM
 = 0.3711E-01(WHEN MIN. R.F.=1)  AT K=   3, I=   2, J=  32


     1 CALLS TO GCG PACKAGE FOR TRANSPORT TIME STEP   1 IN FLOW TIME STEP  32 STRESS PERIOD   1
     5 TOTAL ITERATIONS
  MAXIMUM CONCENTRATION CHANGES FOR EACH ITERATION:
  MAX. CHANGE LAYER,ROW,COL MAX. CHANGE LAYER,ROW,COL MAX. CHANGE LAYER,ROW,COL MAX. CHANGE LAYER,ROW,COL MAX. CHANGE LAYER,ROW,COL
 ------------------------------------------------------------------------------------------------------------------------------------
   0.3215E-02 (  2,  1, 42)  0.2893E-03 (  3,  2, 33)  0.1528E-04 (  4,  2, 33)  0.1550E-05 (  3,  2, 33)  0.5912E-07 (  2,  2, 33)

 NO OUTPUT CONTROL FOR STRESS PERIOD    1   TIME STEP  32


                                          ================================================
                                                         FROM TIME =  0.32000     TO   0.33000    

 
 SOLVING FOR HEAD 
 FLOW MODEL IS TRANSIENT
 FLOW MODEL CONTAINS CONSTANT-HEAD CELLS


 MAXIMUM STEPSIZE DURING WHICH ANY PARTICLE CANNOT MOVE MORE THAN ONE CELL
 = 0.7861    (WHEN MIN. R.F.=1)  AT K=   3, I=   2, J=  33

 MAXIMUM STEPSIZE WHICH MEETS STABILITY CRITERION OF THE ADVECTION TERM
 (FOR PURE FINITE-DIFFERENCE OPTION, MIXELM=0) 
 = 0.5393    (WHEN MIN. R.F.=1)  AT K=   3, I=   2, J=  32


 TOTAL NUMBER OF POINT SOURCES/SINKS PRESENT IN THE FLOW MODEL =   240

 MAXIMUM STEPSIZE WHICH MEETS STABILITY CRITERION OF THE SINK & SOURCE TERM
 = 0.1000E+31(WHEN MIN. R.F.=1)  AT K=   0, I=   0, J=   0

 MAXIMUM STEPSIZE WHICH MEETS STABILITY CRITERION OF THE DISPERSION TERM
 = 0.3713E-01(WHEN MIN. R.F.=1)  AT K=   3, I=   2, J=  32


     1 CALLS TO GCG PACKAGE FOR TRANSPORT TIME STEP   1 IN FLOW TIME STEP  33 STRESS PERIOD   1
     5 TOTAL ITERATIONS
  MAXIMUM CONCENTRATION CHANGES FOR EACH ITERATION:
  MAX. CHANGE LAYER,ROW,COL MAX. CHANGE LAYER,ROW,COL MAX. CHANGE LAYER,ROW,COL MAX. CHANGE LAYER,ROW,COL MAX. CHANGE LAYER,ROW,COL
 ------------------------------------------------------------------------------------------------------------------------------------
   0.3162E-02 (  2,  1, 42)  0.2854E-03 (  3,  2, 33)  0.1510E-04 (  4,  2, 33)  0.1534E-05 (  3,  2, 33)  0.5851E-07 (  2,  2, 33)

 NO OUTPUT CONTROL FOR STRESS PERIOD    1   TIME STEP  33


                                          ================================================
                                                         FROM TIME =  0.33000     TO   0.34000    

 
 SOLVING FOR HEAD 
 FLOW MODEL IS TRANSIENT
 FLOW MODEL CONTAINS CONSTANT-HEAD CELLS


 MAXIMUM STEPSIZE DURING WHICH ANY PARTICLE CANNOT MOVE MORE THAN ONE CELL
 = 0.7864    (WHEN MIN. R.F.=1)  AT K=   3, I=   2, J=  33

 MAXIMUM STEPSIZE WHICH MEETS STABILITY CRITERION OF THE ADVECTION TERM
 (FOR PURE FINITE-DIFFERENCE OPTION, MIXELM=0) 
 = 0.5395    (WHEN MIN. R.F.=1)  AT K=   3, I=   2, J=  32


 TOTAL NUMBER OF POINT SOURCES/SINKS PRESENT IN THE FLOW MODEL =   240

 MAXIMUM STEPSIZE WHICH MEETS STABILITY CRITERION OF THE SINK & SOURCE TERM
 = 0.1000E+31(WHEN MIN. R.F.=1)  AT K=   0, I=   0, J=   0

 MAXIMUM STEPSIZE WHICH MEETS STABILITY CRITERION OF THE DISPERSION TERM
 = 0.3714E-01(WHEN MIN. R.F.=1)  AT K=   3, I=   2, J=  32


     1 CALLS TO GCG PACKAGE FOR TRANSPORT TIME STEP   1 IN FLOW TIME STEP  34 STRESS PERIOD   1
     5 TOTAL ITERATIONS
  MAXIMUM CONCENTRATION CHANGES FOR EACH ITERATION:
  MAX. CHANGE LAYER,ROW,COL MAX. CHANGE LAYER,ROW,COL MAX. CHANGE LAYER,ROW,COL MAX. CHANGE LAYER,ROW,COL MAX. CHANGE LAYER,ROW,COL
 ------------------------------------------------------------------------------------------------------------------------------------
   0.3110E-02 (  2,  1, 42)  0.2816E-03 (  3,  2, 33)  0.1492E-04 (  4,  2, 33)  0.1519E-05 (  3,  2, 33)  0.5792E-07 (  2,  2, 33)

 NO OUTPUT CONTROL FOR STRESS PERIOD    1   TIME STEP  34


                                          ================================================
                                                         FROM TIME =  0.34000     TO   0.35000    

 
 SOLVING FOR HEAD 
 FLOW MODEL IS TRANSIENT
 FLOW MODEL CONTAINS CONSTANT-HEAD CELLS


 MAXIMUM STEPSIZE DURING WHICH ANY PARTICLE CANNOT MOVE MORE THAN ONE CELL
 = 0.7867    (WHEN MIN. R.F.=1)  AT K=   3, I=   2, J=  33

 MAXIMUM STEPSIZE WHICH MEETS STABILITY CRITERION OF THE ADVECTION TERM
 (FOR PURE FINITE-DIFFERENCE OPTION, MIXELM=0) 
 = 0.5397    (WHEN MIN. R.F.=1)  AT K=   3, I=   2, J=  32


 TOTAL NUMBER OF POINT SOURCES/SINKS PRESENT IN THE FLOW MODEL =   240

 MAXIMUM STEPSIZE WHICH MEETS STABILITY CRITERION OF THE SINK & SOURCE TERM
 = 0.1000E+31(WHEN MIN. R.F.=1)  AT K=   0, I=   0, J=   0

 MAXIMUM STEPSIZE WHICH MEETS STABILITY CRITERION OF THE DISPERSION TERM
 = 0.3715E-01(WHEN MIN. R.F.=1)  AT K=   3, I=   2, J=  32


     1 CALLS TO GCG PACKAGE FOR TRANSPORT TIME STEP   1 IN FLOW TIME STEP  35 STRESS PERIOD   1
     5 TOTAL ITERATIONS
  MAXIMUM CONCENTRATION CHANGES FOR EACH ITERATION:
  MAX. CHANGE LAYER,ROW,COL MAX. CHANGE LAYER,ROW,COL MAX. CHANGE LAYER,ROW,COL MAX. CHANGE LAYER,ROW,COL MAX. CHANGE LAYER,ROW,COL
 ------------------------------------------------------------------------------------------------------------------------------------
   0.3060E-02 (  2,  1, 43)  0.2778E-03 (  3,  2, 33)  0.1475E-04 (  4,  2, 33)  0.1503E-05 (  3,  2, 33)  0.5735E-07 (  2,  2, 33)

 NO OUTPUT CONTROL FOR STRESS PERIOD    1   TIME STEP  35


                                          ================================================
                                                         FROM TIME =  0.35000     TO   0.36000    

 
 SOLVING FOR HEAD 
 FLOW MODEL IS TRANSIENT
 FLOW MODEL CONTAINS CONSTANT-HEAD CELLS


 MAXIMUM STEPSIZE DURING WHICH ANY PARTICLE CANNOT MOVE MORE THAN ONE CELL
 = 0.7869    (WHEN MIN. R.F.=1)  AT K=   3, I=   2, J=  33

 MAXIMUM STEPSIZE WHICH MEETS STABILITY CRITERION OF THE ADVECTION TERM
 (FOR PURE FINITE-DIFFERENCE OPTION, MIXELM=0) 
 = 0.5399    (WHEN MIN. R.F.=1)  AT K=   3, I=   2, J=  32


 TOTAL NUMBER OF POINT SOURCES/SINKS PRESENT IN THE FLOW MODEL =   240

 MAXIMUM STEPSIZE WHICH MEETS STABILITY CRITERION OF THE SINK & SOURCE TERM
 = 0.1000E+31(WHEN MIN. R.F.=1)  AT K=   0, I=   0, J=   0

 MAXIMUM STEPSIZE WHICH MEETS STABILITY CRITERION OF THE DISPERSION TERM
 = 0.3716E-01(WHEN MIN. R.F.=1)  AT K=   3, I=   2, J=  32


     1 CALLS TO GCG PACKAGE FOR TRANSPORT TIME STEP   1 IN FLOW TIME STEP  36 STRESS PERIOD   1
     5 TOTAL ITERATIONS
  MAXIMUM CONCENTRATION CHANGES FOR EACH ITERATION:
  MAX. CHANGE LAYER,ROW,COL MAX. CHANGE LAYER,ROW,COL MAX. CHANGE LAYER,ROW,COL MAX. CHANGE LAYER,ROW,COL MAX. CHANGE LAYER,ROW,COL
 ------------------------------------------------------------------------------------------------------------------------------------
   0.3013E-02 (  2,  1, 43)  0.2743E-03 (  3,  2, 33)  0.1458E-04 (  4,  2, 33)  0.1488E-05 (  3,  2, 33)  0.5678E-07 (  2,  2, 33)

 NO OUTPUT CONTROL FOR STRESS PERIOD    1   TIME STEP  36


                                          ================================================
                                                         FROM TIME =  0.36000     TO   0.37000    

 
 SOLVING FOR HEAD 
 FLOW MODEL IS TRANSIENT
 FLOW MODEL CONTAINS CONSTANT-HEAD CELLS


 MAXIMUM STEPSIZE DURING WHICH ANY PARTICLE CANNOT MOVE MORE THAN ONE CELL
 = 0.7872    (WHEN MIN. R.F.=1)  AT K=   3, I=   2, J=  33

 MAXIMUM STEPSIZE WHICH MEETS STABILITY CRITERION OF THE ADVECTION TERM
 (FOR PURE FINITE-DIFFERENCE OPTION, MIXELM=0) 
 = 0.5401    (WHEN MIN. R.F.=1)  AT K=   3, I=   2, J=  32


 TOTAL NUMBER OF POINT SOURCES/SINKS PRESENT IN THE FLOW MODEL =   240

 MAXIMUM STEPSIZE WHICH MEETS STABILITY CRITERION OF THE SINK & SOURCE TERM
 = 0.1000E+31(WHEN MIN. R.F.=1)  AT K=   0, I=   0, J=   0

 MAXIMUM STEPSIZE WHICH MEETS STABILITY CRITERION OF THE DISPERSION TERM
 = 0.3718E-01(WHEN MIN. R.F.=1)  AT K=   3, I=   2, J=  32


     1 CALLS TO GCG PACKAGE FOR TRANSPORT TIME STEP   1 IN FLOW TIME STEP  37 STRESS PERIOD   1
     5 TOTAL ITERATIONS
  MAXIMUM CONCENTRATION CHANGES FOR EACH ITERATION:
  MAX. CHANGE LAYER,ROW,COL MAX. CHANGE LAYER,ROW,COL MAX. CHANGE LAYER,ROW,COL MAX. CHANGE LAYER,ROW,COL MAX. CHANGE LAYER,ROW,COL
 ------------------------------------------------------------------------------------------------------------------------------------
   0.2967E-02 (  2,  1, 43)  0.2708E-03 (  3,  2, 33)  0.1442E-04 (  4,  2, 33)  0.1474E-05 (  3,  2, 33)  0.5624E-07 (  2,  2, 33)

 NO OUTPUT CONTROL FOR STRESS PERIOD    1   TIME STEP  37


                                          ================================================
                                                         FROM TIME =  0.37000     TO   0.38000    

 
 SOLVING FOR HEAD 
 FLOW MODEL IS TRANSIENT
 FLOW MODEL CONTAINS CONSTANT-HEAD CELLS


 MAXIMUM STEPSIZE DURING WHICH ANY PARTICLE CANNOT MOVE MORE THAN ONE CELL
 = 0.7875    (WHEN MIN. R.F.=1)  AT K=   3, I=   2, J=  33

 MAXIMUM STEPSIZE WHICH MEETS STABILITY CRITERION OF THE ADVECTION TERM
 (FOR PURE FINITE-DIFFERENCE OPTION, MIXELM=0) 
 = 0.5403    (WHEN MIN. R.F.=1)  AT K=   3, I=   2, J=  32


 TOTAL NUMBER OF POINT SOURCES/SINKS PRESENT IN THE FLOW MODEL =   240

 MAXIMUM STEPSIZE WHICH MEETS STABILITY CRITERION OF THE SINK & SOURCE TERM
 = 0.1000E+31(WHEN MIN. R.F.=1)  AT K=   0, I=   0, J=   0

 MAXIMUM STEPSIZE WHICH MEETS STABILITY CRITERION OF THE DISPERSION TERM
 = 0.3719E-01(WHEN MIN. R.F.=1)  AT K=   3, I=   2, J=  32


     1 CALLS TO GCG PACKAGE FOR TRANSPORT TIME STEP   1 IN FLOW TIME STEP  38 STRESS PERIOD   1
     5 TOTAL ITERATIONS
  MAXIMUM CONCENTRATION CHANGES FOR EACH ITERATION:
  MAX. CHANGE LAYER,ROW,COL MAX. CHANGE LAYER,ROW,COL MAX. CHANGE LAYER,ROW,COL MAX. CHANGE LAYER,ROW,COL MAX. CHANGE LAYER,ROW,COL
 ------------------------------------------------------------------------------------------------------------------------------------
   0.2922E-02 (  2,  1, 43)  0.2674E-03 (  3,  2, 33)  0.1426E-04 (  4,  2, 33)  0.1459E-05 (  3,  2, 33)  0.5570E-07 (  2,  2, 33)

 NO OUTPUT CONTROL FOR STRESS PERIOD    1   TIME STEP  38


                                          ================================================
                                                         FROM TIME =  0.38000     TO   0.39000    

 
 SOLVING FOR HEAD 
 FLOW MODEL IS TRANSIENT
 FLOW MODEL CONTAINS CONSTANT-HEAD CELLS


 MAXIMUM STEPSIZE DURING WHICH ANY PARTICLE CANNOT MOVE MORE THAN ONE CELL
 = 0.7878    (WHEN MIN. R.F.=1)  AT K=   3, I=   2, J=  33

 MAXIMUM STEPSIZE WHICH MEETS STABILITY CRITERION OF THE ADVECTION TERM
 (FOR PURE FINITE-DIFFERENCE OPTION, MIXELM=0) 
 = 0.5405    (WHEN MIN. R.F.=1)  AT K=   3, I=   2, J=  32


 TOTAL NUMBER OF POINT SOURCES/SINKS PRESENT IN THE FLOW MODEL =   240

 MAXIMUM STEPSIZE WHICH MEETS STABILITY CRITERION OF THE SINK & SOURCE TERM
 = 0.1000E+31(WHEN MIN. R.F.=1)  AT K=   0, I=   0, J=   0

 MAXIMUM STEPSIZE WHICH MEETS STABILITY CRITERION OF THE DISPERSION TERM
 = 0.3720E-01(WHEN MIN. R.F.=1)  AT K=   3, I=   2, J=  32


     1 CALLS TO GCG PACKAGE FOR TRANSPORT TIME STEP   1 IN FLOW TIME STEP  39 STRESS PERIOD   1
     5 TOTAL ITERATIONS
  MAXIMUM CONCENTRATION CHANGES FOR EACH ITERATION:
  MAX. CHANGE LAYER,ROW,COL MAX. CHANGE LAYER,ROW,COL MAX. CHANGE LAYER,ROW,COL MAX. CHANGE LAYER,ROW,COL MAX. CHANGE LAYER,ROW,COL
 ------------------------------------------------------------------------------------------------------------------------------------
   0.2878E-02 (  2,  1, 43)  0.2641E-03 (  3,  2, 33)  0.1411E-04 (  4,  2, 33)  0.1445E-05 (  3,  2, 33)  0.5518E-07 (  2,  2, 33)

 NO OUTPUT CONTROL FOR STRESS PERIOD    1   TIME STEP  39


                                          ================================================
                                                         FROM TIME =  0.39000     TO   0.40000    

 
 SOLVING FOR HEAD 
 FLOW MODEL IS TRANSIENT
 FLOW MODEL CONTAINS CONSTANT-HEAD CELLS


 MAXIMUM STEPSIZE DURING WHICH ANY PARTICLE CANNOT MOVE MORE THAN ONE CELL
 = 0.7880    (WHEN MIN. R.F.=1)  AT K=   3, I=   2, J=  33

 MAXIMUM STEPSIZE WHICH MEETS STABILITY CRITERION OF THE ADVECTION TERM
 (FOR PURE FINITE-DIFFERENCE OPTION, MIXELM=0) 
 = 0.5407    (WHEN MIN. R.F.=1)  AT K=   3, I=   2, J=  32


 TOTAL NUMBER OF POINT SOURCES/SINKS PRESENT IN THE FLOW MODEL =   240

 MAXIMUM STEPSIZE WHICH MEETS STABILITY CRITERION OF THE SINK & SOURCE TERM
 = 0.1000E+31(WHEN MIN. R.F.=1)  AT K=   0, I=   0, J=   0

 MAXIMUM STEPSIZE WHICH MEETS STABILITY CRITERION OF THE DISPERSION TERM
 = 0.3722E-01(WHEN MIN. R.F.=1)  AT K=   3, I=   2, J=  32


     1 CALLS TO GCG PACKAGE FOR TRANSPORT TIME STEP   1 IN FLOW TIME STEP  40 STRESS PERIOD   1
     5 TOTAL ITERATIONS
  MAXIMUM CONCENTRATION CHANGES FOR EACH ITERATION:
  MAX. CHANGE LAYER,ROW,COL MAX. CHANGE LAYER,ROW,COL MAX. CHANGE LAYER,ROW,COL MAX. CHANGE LAYER,ROW,COL MAX. CHANGE LAYER,ROW,COL
 ------------------------------------------------------------------------------------------------------------------------------------
   0.2836E-02 (  2,  1, 43)  0.2609E-03 (  3,  2, 33)  0.1396E-04 (  4,  2, 33)  0.1431E-05 (  3,  2, 33)  0.5467E-07 (  2,  2, 33)

 NO OUTPUT CONTROL FOR STRESS PERIOD    1   TIME STEP  40


                                          ================================================
                                                         FROM TIME =  0.40000     TO   0.41000    

 
 SOLVING FOR HEAD 
 FLOW MODEL IS TRANSIENT
 FLOW MODEL CONTAINS CONSTANT-HEAD CELLS


 MAXIMUM STEPSIZE DURING WHICH ANY PARTICLE CANNOT MOVE MORE THAN ONE CELL
 = 0.7883    (WHEN MIN. R.F.=1)  AT K=   3, I=   2, J=  33

 MAXIMUM STEPSIZE WHICH MEETS STABILITY CRITERION OF THE ADVECTION TERM
 (FOR PURE FINITE-DIFFERENCE OPTION, MIXELM=0) 
 = 0.5409    (WHEN MIN. R.F.=1)  AT K=   3, I=   2, J=  32


 TOTAL NUMBER OF POINT SOURCES/SINKS PRESENT IN THE FLOW MODEL =   240

 MAXIMUM STEPSIZE WHICH MEETS STABILITY CRITERION OF THE SINK & SOURCE TERM
 = 0.1000E+31(WHEN MIN. R.F.=1)  AT K=   0, I=   0, J=   0

 MAXIMUM STEPSIZE WHICH MEETS STABILITY CRITERION OF THE DISPERSION TERM
 = 0.3723E-01(WHEN MIN. R.F.=1)  AT K=   3, I=   2, J=  32


     1 CALLS TO GCG PACKAGE FOR TRANSPORT TIME STEP   1 IN FLOW TIME STEP  41 STRESS PERIOD   1
     5 TOTAL ITERATIONS
  MAXIMUM CONCENTRATION CHANGES FOR EACH ITERATION:
  MAX. CHANGE LAYER,ROW,COL MAX. CHANGE LAYER,ROW,COL MAX. CHANGE LAYER,ROW,COL MAX. CHANGE LAYER,ROW,COL MAX. CHANGE LAYER,ROW,COL
 ------------------------------------------------------------------------------------------------------------------------------------
   0.2793E-02 (  2,  1, 43)  0.2578E-03 (  3,  2, 33)  0.1381E-04 (  4,  2, 33)  0.1418E-05 (  3,  2, 33)  0.5417E-07 (  2,  2, 33)

 NO OUTPUT CONTROL FOR STRESS PERIOD    1   TIME STEP  41


                                          ================================================
                                                         FROM TIME =  0.41000     TO   0.42000    

 
 SOLVING FOR HEAD 
 FLOW MODEL IS TRANSIENT
 FLOW MODEL CONTAINS CONSTANT-HEAD CELLS


 MAXIMUM STEPSIZE DURING WHICH ANY PARTICLE CANNOT MOVE MORE THAN ONE CELL
 = 0.7886    (WHEN MIN. R.F.=1)  AT K=   3, I=   2, J=  33

 MAXIMUM STEPSIZE WHICH MEETS STABILITY CRITERION OF THE ADVECTION TERM
 (FOR PURE FINITE-DIFFERENCE OPTION, MIXELM=0) 
 = 0.5411    (WHEN MIN. R.F.=1)  AT K=   3, I=   2, J=  32


 TOTAL NUMBER OF POINT SOURCES/SINKS PRESENT IN THE FLOW MODEL =   240

 MAXIMUM STEPSIZE WHICH MEETS STABILITY CRITERION OF THE SINK & SOURCE TERM
 = 0.1000E+31(WHEN MIN. R.F.=1)  AT K=   0, I=   0, J=   0

 MAXIMUM STEPSIZE WHICH MEETS STABILITY CRITERION OF THE DISPERSION TERM
 = 0.3724E-01(WHEN MIN. R.F.=1)  AT K=   3, I=   2, J=  32


     1 CALLS TO GCG PACKAGE FOR TRANSPORT TIME STEP   1 IN FLOW TIME STEP  42 STRESS PERIOD   1
     5 TOTAL ITERATIONS
  MAXIMUM CONCENTRATION CHANGES FOR EACH ITERATION:
  MAX. CHANGE LAYER,ROW,COL MAX. CHANGE LAYER,ROW,COL MAX. CHANGE LAYER,ROW,COL MAX. CHANGE LAYER,ROW,COL MAX. CHANGE LAYER,ROW,COL
 ------------------------------------------------------------------------------------------------------------------------------------
   0.2752E-02 (  2,  1, 43)  0.2548E-03 (  3,  2, 33)  0.1367E-04 (  4,  2, 33)  0.1404E-05 (  3,  2, 33)  0.5369E-07 (  2,  2, 33)

 NO OUTPUT CONTROL FOR STRESS PERIOD    1   TIME STEP  42


                                          ================================================
                                                         FROM TIME =  0.42000     TO   0.43000    

 
 SOLVING FOR HEAD 
 FLOW MODEL IS TRANSIENT
 FLOW MODEL CONTAINS CONSTANT-HEAD CELLS


 MAXIMUM STEPSIZE DURING WHICH ANY PARTICLE CANNOT MOVE MORE THAN ONE CELL
 = 0.7889    (WHEN MIN. R.F.=1)  AT K=   3, I=   2, J=  33

 MAXIMUM STEPSIZE WHICH MEETS STABILITY CRITERION OF THE ADVECTION TERM
 (FOR PURE FINITE-DIFFERENCE OPTION, MIXELM=0) 
 = 0.5413    (WHEN MIN. R.F.=1)  AT K=   3, I=   2, J=  32


 TOTAL NUMBER OF POINT SOURCES/SINKS PRESENT IN THE FLOW MODEL =   240

 MAXIMUM STEPSIZE WHICH MEETS STABILITY CRITERION OF THE SINK & SOURCE TERM
 = 0.1000E+31(WHEN MIN. R.F.=1)  AT K=   0, I=   0, J=   0

 MAXIMUM STEPSIZE WHICH MEETS STABILITY CRITERION OF THE DISPERSION TERM
 = 0.3726E-01(WHEN MIN. R.F.=1)  AT K=   3, I=   2, J=  32


     1 CALLS TO GCG PACKAGE FOR TRANSPORT TIME STEP   1 IN FLOW TIME STEP  43 STRESS PERIOD   1
     5 TOTAL ITERATIONS
  MAXIMUM CONCENTRATION CHANGES FOR EACH ITERATION:
  MAX. CHANGE LAYER,ROW,COL MAX. CHANGE LAYER,ROW,COL MAX. CHANGE LAYER,ROW,COL MAX. CHANGE LAYER,ROW,COL MAX. CHANGE LAYER,ROW,COL
 ------------------------------------------------------------------------------------------------------------------------------------
   0.2712E-02 (  2,  1, 43)  0.2519E-03 (  3,  2, 33)  0.1353E-04 (  4,  2, 33)  0.1391E-05 (  3,  2, 33)  0.5322E-07 (  2,  2, 33)

 NO OUTPUT CONTROL FOR STRESS PERIOD    1   TIME STEP  43


                                          ================================================
                                                         FROM TIME =  0.43000     TO   0.44000    

 
 SOLVING FOR HEAD 
 FLOW MODEL IS TRANSIENT
 FLOW MODEL CONTAINS CONSTANT-HEAD CELLS


 MAXIMUM STEPSIZE DURING WHICH ANY PARTICLE CANNOT MOVE MORE THAN ONE CELL
 = 0.7892    (WHEN MIN. R.F.=1)  AT K=   3, I=   2, J=  33

 MAXIMUM STEPSIZE WHICH MEETS STABILITY CRITERION OF THE ADVECTION TERM
 (FOR PURE FINITE-DIFFERENCE OPTION, MIXELM=0) 
 = 0.5415    (WHEN MIN. R.F.=1)  AT K=   3, I=   2, J=  32


 TOTAL NUMBER OF POINT SOURCES/SINKS PRESENT IN THE FLOW MODEL =   240

 MAXIMUM STEPSIZE WHICH MEETS STABILITY CRITERION OF THE SINK & SOURCE TERM
 = 0.1000E+31(WHEN MIN. R.F.=1)  AT K=   0, I=   0, J=   0

 MAXIMUM STEPSIZE WHICH MEETS STABILITY CRITERION OF THE DISPERSION TERM
 = 0.3727E-01(WHEN MIN. R.F.=1)  AT K=   3, I=   2, J=  32


     1 CALLS TO GCG PACKAGE FOR TRANSPORT TIME STEP   1 IN FLOW TIME STEP  44 STRESS PERIOD   1
     5 TOTAL ITERATIONS
  MAXIMUM CONCENTRATION CHANGES FOR EACH ITERATION:
  MAX. CHANGE LAYER,ROW,COL MAX. CHANGE LAYER,ROW,COL MAX. CHANGE LAYER,ROW,COL MAX. CHANGE LAYER,ROW,COL MAX. CHANGE LAYER,ROW,COL
 ------------------------------------------------------------------------------------------------------------------------------------
   0.2672E-02 (  2,  1, 43)  0.2491E-03 (  3,  2, 33)  0.1339E-04 (  4,  2, 33)  0.1378E-05 (  3,  2, 33)  0.5275E-07 (  2,  2, 33)

 NO OUTPUT CONTROL FOR STRESS PERIOD    1   TIME STEP  44


                                          ================================================
                                                         FROM TIME =  0.44000     TO   0.45000    

 
 SOLVING FOR HEAD 
 FLOW MODEL IS TRANSIENT
 FLOW MODEL CONTAINS CONSTANT-HEAD CELLS


 MAXIMUM STEPSIZE DURING WHICH ANY PARTICLE CANNOT MOVE MORE THAN ONE CELL
 = 0.7894    (WHEN MIN. R.F.=1)  AT K=   3, I=   2, J=  33

 MAXIMUM STEPSIZE WHICH MEETS STABILITY CRITERION OF THE ADVECTION TERM
 (FOR PURE FINITE-DIFFERENCE OPTION, MIXELM=0) 
 = 0.5417    (WHEN MIN. R.F.=1)  AT K=   3, I=   2, J=  32


 TOTAL NUMBER OF POINT SOURCES/SINKS PRESENT IN THE FLOW MODEL =   240

 MAXIMUM STEPSIZE WHICH MEETS STABILITY CRITERION OF THE SINK & SOURCE TERM
 = 0.1000E+31(WHEN MIN. R.F.=1)  AT K=   0, I=   0, J=   0

 MAXIMUM STEPSIZE WHICH MEETS STABILITY CRITERION OF THE DISPERSION TERM
 = 0.3729E-01(WHEN MIN. R.F.=1)  AT K=   3, I=   2, J=  32


     1 CALLS TO GCG PACKAGE FOR TRANSPORT TIME STEP   1 IN FLOW TIME STEP  45 STRESS PERIOD   1
     5 TOTAL ITERATIONS
  MAXIMUM CONCENTRATION CHANGES FOR EACH ITERATION:
  MAX. CHANGE LAYER,ROW,COL MAX. CHANGE LAYER,ROW,COL MAX. CHANGE LAYER,ROW,COL MAX. CHANGE LAYER,ROW,COL MAX. CHANGE LAYER,ROW,COL
 ------------------------------------------------------------------------------------------------------------------------------------
   0.2634E-02 (  2,  1, 43)  0.2463E-03 (  3,  2, 33)  0.1326E-04 (  4,  2, 33)  0.1365E-05 (  3,  2, 33)  0.5230E-07 (  2,  2, 33)

 NO OUTPUT CONTROL FOR STRESS PERIOD    1   TIME STEP  45


                                          ================================================
                                                         FROM TIME =  0.45000     TO   0.46000    

 
 SOLVING FOR HEAD 
 FLOW MODEL IS TRANSIENT
 FLOW MODEL CONTAINS CONSTANT-HEAD CELLS


 MAXIMUM STEPSIZE DURING WHICH ANY PARTICLE CANNOT MOVE MORE THAN ONE CELL
 = 0.7897    (WHEN MIN. R.F.=1)  AT K=   3, I=   2, J=  33

 MAXIMUM STEPSIZE WHICH MEETS STABILITY CRITERION OF THE ADVECTION TERM
 (FOR PURE FINITE-DIFFERENCE OPTION, MIXELM=0) 
 = 0.5419    (WHEN MIN. R.F.=1)  AT K=   3, I=   2, J=  32


 TOTAL NUMBER OF POINT SOURCES/SINKS PRESENT IN THE FLOW MODEL =   240

 MAXIMUM STEPSIZE WHICH MEETS STABILITY CRITERION OF THE SINK & SOURCE TERM
 = 0.1000E+31(WHEN MIN. R.F.=1)  AT K=   0, I=   0, J=   0

 MAXIMUM STEPSIZE WHICH MEETS STABILITY CRITERION OF THE DISPERSION TERM
 = 0.3730E-01(WHEN MIN. R.F.=1)  AT K=   3, I=   2, J=  32


     1 CALLS TO GCG PACKAGE FOR TRANSPORT TIME STEP   1 IN FLOW TIME STEP  46 STRESS PERIOD   1
     5 TOTAL ITERATIONS
  MAXIMUM CONCENTRATION CHANGES FOR EACH ITERATION:
  MAX. CHANGE LAYER,ROW,COL MAX. CHANGE LAYER,ROW,COL MAX. CHANGE LAYER,ROW,COL MAX. CHANGE LAYER,ROW,COL MAX. CHANGE LAYER,ROW,COL
 ------------------------------------------------------------------------------------------------------------------------------------
   0.2596E-02 (  2,  1, 43)  0.2436E-03 (  3,  2, 33)  0.1313E-04 (  4,  2, 33)  0.1353E-05 (  3,  2, 33)  0.5186E-07 (  2,  2, 33)

 NO OUTPUT CONTROL FOR STRESS PERIOD    1   TIME STEP  46


                                          ================================================
                                                         FROM TIME =  0.46000     TO   0.47000    

 
 SOLVING FOR HEAD 
 FLOW MODEL IS TRANSIENT
 FLOW MODEL CONTAINS CONSTANT-HEAD CELLS


 MAXIMUM STEPSIZE DURING WHICH ANY PARTICLE CANNOT MOVE MORE THAN ONE CELL
 = 0.7900    (WHEN MIN. R.F.=1)  AT K=   3, I=   2, J=  33

 MAXIMUM STEPSIZE WHICH MEETS STABILITY CRITERION OF THE ADVECTION TERM
 (FOR PURE FINITE-DIFFERENCE OPTION, MIXELM=0) 
 = 0.5421    (WHEN MIN. R.F.=1)  AT K=   3, I=   2, J=  32


 TOTAL NUMBER OF POINT SOURCES/SINKS PRESENT IN THE FLOW MODEL =   240

 MAXIMUM STEPSIZE WHICH MEETS STABILITY CRITERION OF THE SINK & SOURCE TERM
 = 0.1000E+31(WHEN MIN. R.F.=1)  AT K=   0, I=   0, J=   0

 MAXIMUM STEPSIZE WHICH MEETS STABILITY CRITERION OF THE DISPERSION TERM
 = 0.3731E-01(WHEN MIN. R.F.=1)  AT K=   3, I=   2, J=  32


     1 CALLS TO GCG PACKAGE FOR TRANSPORT TIME STEP   1 IN FLOW TIME STEP  47 STRESS PERIOD   1
     5 TOTAL ITERATIONS
  MAXIMUM CONCENTRATION CHANGES FOR EACH ITERATION:
  MAX. CHANGE LAYER,ROW,COL MAX. CHANGE LAYER,ROW,COL MAX. CHANGE LAYER,ROW,COL MAX. CHANGE LAYER,ROW,COL MAX. CHANGE LAYER,ROW,COL
 ------------------------------------------------------------------------------------------------------------------------------------
   0.2559E-02 (  2,  1, 43)  0.2410E-03 (  3,  2, 33)  0.1300E-04 (  4,  2, 33)  0.1341E-05 (  3,  2, 33)  0.5143E-07 (  2,  2, 33)

 NO OUTPUT CONTROL FOR STRESS PERIOD    1   TIME STEP  47


                                          ================================================
                                                         FROM TIME =  0.47000     TO   0.48000    

 
 SOLVING FOR HEAD 
 FLOW MODEL IS TRANSIENT
 FLOW MODEL CONTAINS CONSTANT-HEAD CELLS


 MAXIMUM STEPSIZE DURING WHICH ANY PARTICLE CANNOT MOVE MORE THAN ONE CELL
 = 0.7903    (WHEN MIN. R.F.=1)  AT K=   3, I=   2, J=  33

 MAXIMUM STEPSIZE WHICH MEETS STABILITY CRITERION OF THE ADVECTION TERM
 (FOR PURE FINITE-DIFFERENCE OPTION, MIXELM=0) 
 = 0.5423    (WHEN MIN. R.F.=1)  AT K=   3, I=   2, J=  32


 TOTAL NUMBER OF POINT SOURCES/SINKS PRESENT IN THE FLOW MODEL =   240

 MAXIMUM STEPSIZE WHICH MEETS STABILITY CRITERION OF THE SINK & SOURCE TERM
 = 0.1000E+31(WHEN MIN. R.F.=1)  AT K=   0, I=   0, J=   0

 MAXIMUM STEPSIZE WHICH MEETS STABILITY CRITERION OF THE DISPERSION TERM
 = 0.3733E-01(WHEN MIN. R.F.=1)  AT K=   3, I=   2, J=  32


     1 CALLS TO GCG PACKAGE FOR TRANSPORT TIME STEP   1 IN FLOW TIME STEP  48 STRESS PERIOD   1
     5 TOTAL ITERATIONS
  MAXIMUM CONCENTRATION CHANGES FOR EACH ITERATION:
  MAX. CHANGE LAYER,ROW,COL MAX. CHANGE LAYER,ROW,COL MAX. CHANGE LAYER,ROW,COL MAX. CHANGE LAYER,ROW,COL MAX. CHANGE LAYER,ROW,COL
 ------------------------------------------------------------------------------------------------------------------------------------
   0.2541E-02 (  2,  3, 53)  0.2384E-03 (  3,  2, 33)  0.1288E-04 (  4,  2, 33)  0.1329E-05 (  3,  2, 33)  0.5100E-07 (  2,  2, 33)

 NO OUTPUT CONTROL FOR STRESS PERIOD    1   TIME STEP  48


                                          ================================================
                                                         FROM TIME =  0.48000     TO   0.49000    

 
 SOLVING FOR HEAD 
 FLOW MODEL IS TRANSIENT
 FLOW MODEL CONTAINS CONSTANT-HEAD CELLS


 MAXIMUM STEPSIZE DURING WHICH ANY PARTICLE CANNOT MOVE MORE THAN ONE CELL
 = 0.7906    (WHEN MIN. R.F.=1)  AT K=   3, I=   2, J=  33

 MAXIMUM STEPSIZE WHICH MEETS STABILITY CRITERION OF THE ADVECTION TERM
 (FOR PURE FINITE-DIFFERENCE OPTION, MIXELM=0) 
 = 0.5425    (WHEN MIN. R.F.=1)  AT K=   3, I=   2, J=  32


 TOTAL NUMBER OF POINT SOURCES/SINKS PRESENT IN THE FLOW MODEL =   240

 MAXIMUM STEPSIZE WHICH MEETS STABILITY CRITERION OF THE SINK & SOURCE TERM
 = 0.1000E+31(WHEN MIN. R.F.=1)  AT K=   0, I=   0, J=   0

 MAXIMUM STEPSIZE WHICH MEETS STABILITY CRITERION OF THE DISPERSION TERM
 = 0.3734E-01(WHEN MIN. R.F.=1)  AT K=   3, I=   2, J=  32


     1 CALLS TO GCG PACKAGE FOR TRANSPORT TIME STEP   1 IN FLOW TIME STEP  49 STRESS PERIOD   1
     5 TOTAL ITERATIONS
  MAXIMUM CONCENTRATION CHANGES FOR EACH ITERATION:
  MAX. CHANGE LAYER,ROW,COL MAX. CHANGE LAYER,ROW,COL MAX. CHANGE LAYER,ROW,COL MAX. CHANGE LAYER,ROW,COL MAX. CHANGE LAYER,ROW,COL
 ------------------------------------------------------------------------------------------------------------------------------------
   0.2527E-02 (  2,  3, 53)  0.2360E-03 (  3,  2, 33)  0.1276E-04 (  4,  2, 33)  0.1317E-05 (  3,  2, 33)  0.5059E-07 (  2,  2, 33)

 NO OUTPUT CONTROL FOR STRESS PERIOD    1   TIME STEP  49


                                          ================================================
                                                         FROM TIME =  0.49000     TO   0.50000    

 
 SOLVING FOR HEAD 
 FLOW MODEL IS TRANSIENT
 FLOW MODEL CONTAINS CONSTANT-HEAD CELLS


 MAXIMUM STEPSIZE DURING WHICH ANY PARTICLE CANNOT MOVE MORE THAN ONE CELL
 = 0.7909    (WHEN MIN. R.F.=1)  AT K=   3, I=   2, J=  33

 MAXIMUM STEPSIZE WHICH MEETS STABILITY CRITERION OF THE ADVECTION TERM
 (FOR PURE FINITE-DIFFERENCE OPTION, MIXELM=0) 
 = 0.5427    (WHEN MIN. R.F.=1)  AT K=   3, I=   2, J=  32


 TOTAL NUMBER OF POINT SOURCES/SINKS PRESENT IN THE FLOW MODEL =   240

 MAXIMUM STEPSIZE WHICH MEETS STABILITY CRITERION OF THE SINK & SOURCE TERM
 = 0.1000E+31(WHEN MIN. R.F.=1)  AT K=   0, I=   0, J=   0

 MAXIMUM STEPSIZE WHICH MEETS STABILITY CRITERION OF THE DISPERSION TERM
 = 0.3735E-01(WHEN MIN. R.F.=1)  AT K=   3, I=   2, J=  32


     1 CALLS TO GCG PACKAGE FOR TRANSPORT TIME STEP   1 IN FLOW TIME STEP  50 STRESS PERIOD   1
     5 TOTAL ITERATIONS
  MAXIMUM CONCENTRATION CHANGES FOR EACH ITERATION:
  MAX. CHANGE LAYER,ROW,COL MAX. CHANGE LAYER,ROW,COL MAX. CHANGE LAYER,ROW,COL MAX. CHANGE LAYER,ROW,COL MAX. CHANGE LAYER,ROW,COL
 ------------------------------------------------------------------------------------------------------------------------------------
   0.2513E-02 (  2,  3, 53)  0.2336E-03 (  3,  2, 33)  0.1264E-04 (  4,  2, 33)  0.1305E-05 (  3,  2, 33)  0.5019E-07 (  2,  2, 33)

 NO OUTPUT CONTROL FOR STRESS PERIOD    1   TIME STEP  50


                                          ================================================
                                                         FROM TIME =  0.50000     TO   0.51000    

 
 SOLVING FOR HEAD 
 FLOW MODEL IS TRANSIENT
 FLOW MODEL CONTAINS CONSTANT-HEAD CELLS


 MAXIMUM STEPSIZE DURING WHICH ANY PARTICLE CANNOT MOVE MORE THAN ONE CELL
 = 0.7911    (WHEN MIN. R.F.=1)  AT K=   3, I=   2, J=  33

 MAXIMUM STEPSIZE WHICH MEETS STABILITY CRITERION OF THE ADVECTION TERM
 (FOR PURE FINITE-DIFFERENCE OPTION, MIXELM=0) 
 = 0.5429    (WHEN MIN. R.F.=1)  AT K=   3, I=   2, J=  32


 TOTAL NUMBER OF POINT SOURCES/SINKS PRESENT IN THE FLOW MODEL =   240

 MAXIMUM STEPSIZE WHICH MEETS STABILITY CRITERION OF THE SINK & SOURCE TERM
 = 0.1000E+31(WHEN MIN. R.F.=1)  AT K=   0, I=   0, J=   0

 MAXIMUM STEPSIZE WHICH MEETS STABILITY CRITERION OF THE DISPERSION TERM
 = 0.3737E-01(WHEN MIN. R.F.=1)  AT K=   3, I=   2, J=  32


     1 CALLS TO GCG PACKAGE FOR TRANSPORT TIME STEP   1 IN FLOW TIME STEP  51 STRESS PERIOD   1
     5 TOTAL ITERATIONS
  MAXIMUM CONCENTRATION CHANGES FOR EACH ITERATION:
  MAX. CHANGE LAYER,ROW,COL MAX. CHANGE LAYER,ROW,COL MAX. CHANGE LAYER,ROW,COL MAX. CHANGE LAYER,ROW,COL MAX. CHANGE LAYER,ROW,COL
 ------------------------------------------------------------------------------------------------------------------------------------
   0.2500E-02 (  2,  3, 53)  0.2312E-03 (  3,  2, 33)  0.1252E-04 (  4,  2, 33)  0.1294E-05 (  3,  2, 33)  0.4979E-07 (  2,  2, 33)

 NO OUTPUT CONTROL FOR STRESS PERIOD    1   TIME STEP  51


                                          ================================================
                                                         FROM TIME =  0.51000     TO   0.52000    

 
 SOLVING FOR HEAD 
 FLOW MODEL IS TRANSIENT
 FLOW MODEL CONTAINS CONSTANT-HEAD CELLS


 MAXIMUM STEPSIZE DURING WHICH ANY PARTICLE CANNOT MOVE MORE THAN ONE CELL
 = 0.7914    (WHEN MIN. R.F.=1)  AT K=   3, I=   2, J=  33

 MAXIMUM STEPSIZE WHICH MEETS STABILITY CRITERION OF THE ADVECTION TERM
 (FOR PURE FINITE-DIFFERENCE OPTION, MIXELM=0) 
 = 0.5431    (WHEN MIN. R.F.=1)  AT K=   3, I=   2, J=  32


 TOTAL NUMBER OF POINT SOURCES/SINKS PRESENT IN THE FLOW MODEL =   240

 MAXIMUM STEPSIZE WHICH MEETS STABILITY CRITERION OF THE SINK & SOURCE TERM
 = 0.1000E+31(WHEN MIN. R.F.=1)  AT K=   0, I=   0, J=   0

 MAXIMUM STEPSIZE WHICH MEETS STABILITY CRITERION OF THE DISPERSION TERM
 = 0.3738E-01(WHEN MIN. R.F.=1)  AT K=   3, I=   2, J=  32


     1 CALLS TO GCG PACKAGE FOR TRANSPORT TIME STEP   1 IN FLOW TIME STEP  52 STRESS PERIOD   1
     5 TOTAL ITERATIONS
  MAXIMUM CONCENTRATION CHANGES FOR EACH ITERATION:
  MAX. CHANGE LAYER,ROW,COL MAX. CHANGE LAYER,ROW,COL MAX. CHANGE LAYER,ROW,COL MAX. CHANGE LAYER,ROW,COL MAX. CHANGE LAYER,ROW,COL
 ------------------------------------------------------------------------------------------------------------------------------------
   0.2486E-02 (  2,  3, 53)  0.2289E-03 (  3,  2, 33)  0.1241E-04 (  4,  2, 33)  0.1283E-05 (  3,  2, 33)  0.4940E-07 (  2,  2, 33)

 NO OUTPUT CONTROL FOR STRESS PERIOD    1   TIME STEP  52


                                          ================================================
                                                         FROM TIME =  0.52000     TO   0.53000    

 
 SOLVING FOR HEAD 
 FLOW MODEL IS TRANSIENT
 FLOW MODEL CONTAINS CONSTANT-HEAD CELLS


 MAXIMUM STEPSIZE DURING WHICH ANY PARTICLE CANNOT MOVE MORE THAN ONE CELL
 = 0.7917    (WHEN MIN. R.F.=1)  AT K=   3, I=   2, J=  33

 MAXIMUM STEPSIZE WHICH MEETS STABILITY CRITERION OF THE ADVECTION TERM
 (FOR PURE FINITE-DIFFERENCE OPTION, MIXELM=0) 
 = 0.5433    (WHEN MIN. R.F.=1)  AT K=   3, I=   2, J=  32


 TOTAL NUMBER OF POINT SOURCES/SINKS PRESENT IN THE FLOW MODEL =   240

 MAXIMUM STEPSIZE WHICH MEETS STABILITY CRITERION OF THE SINK & SOURCE TERM
 = 0.1000E+31(WHEN MIN. R.F.=1)  AT K=   0, I=   0, J=   0

 MAXIMUM STEPSIZE WHICH MEETS STABILITY CRITERION OF THE DISPERSION TERM
 = 0.3739E-01(WHEN MIN. R.F.=1)  AT K=   3, I=   2, J=  32


     1 CALLS TO GCG PACKAGE FOR TRANSPORT TIME STEP   1 IN FLOW TIME STEP  53 STRESS PERIOD   1
     5 TOTAL ITERATIONS
  MAXIMUM CONCENTRATION CHANGES FOR EACH ITERATION:
  MAX. CHANGE LAYER,ROW,COL MAX. CHANGE LAYER,ROW,COL MAX. CHANGE LAYER,ROW,COL MAX. CHANGE LAYER,ROW,COL MAX. CHANGE LAYER,ROW,COL
 ------------------------------------------------------------------------------------------------------------------------------------
   0.2472E-02 (  2,  3, 53)  0.2267E-03 (  3,  2, 33)  0.1230E-04 (  4,  2, 33)  0.1272E-05 (  3,  2, 33)  0.4902E-07 (  2,  2, 33)

 NO OUTPUT CONTROL FOR STRESS PERIOD    1   TIME STEP  53


                                          ================================================
                                                         FROM TIME =  0.53000     TO   0.54000    

 
 SOLVING FOR HEAD 
 FLOW MODEL IS TRANSIENT
 FLOW MODEL CONTAINS CONSTANT-HEAD CELLS


 MAXIMUM STEPSIZE DURING WHICH ANY PARTICLE CANNOT MOVE MORE THAN ONE CELL
 = 0.7920    (WHEN MIN. R.F.=1)  AT K=   3, I=   2, J=  33

 MAXIMUM STEPSIZE WHICH MEETS STABILITY CRITERION OF THE ADVECTION TERM
 (FOR PURE FINITE-DIFFERENCE OPTION, MIXELM=0) 
 = 0.5435    (WHEN MIN. R.F.=1)  AT K=   3, I=   2, J=  32


 TOTAL NUMBER OF POINT SOURCES/SINKS PRESENT IN THE FLOW MODEL =   240

 MAXIMUM STEPSIZE WHICH MEETS STABILITY CRITERION OF THE SINK & SOURCE TERM
 = 0.1000E+31(WHEN MIN. R.F.=1)  AT K=   0, I=   0, J=   0

 MAXIMUM STEPSIZE WHICH MEETS STABILITY CRITERION OF THE DISPERSION TERM
 = 0.3741E-01(WHEN MIN. R.F.=1)  AT K=   3, I=   2, J=  32


     1 CALLS TO GCG PACKAGE FOR TRANSPORT TIME STEP   1 IN FLOW TIME STEP  54 STRESS PERIOD   1
     5 TOTAL ITERATIONS
  MAXIMUM CONCENTRATION CHANGES FOR EACH ITERATION:
  MAX. CHANGE LAYER,ROW,COL MAX. CHANGE LAYER,ROW,COL MAX. CHANGE LAYER,ROW,COL MAX. CHANGE LAYER,ROW,COL MAX. CHANGE LAYER,ROW,COL
 ------------------------------------------------------------------------------------------------------------------------------------
   0.2458E-02 (  2,  3, 53)  0.2245E-03 (  3,  2, 33)  0.1219E-04 (  4,  2, 33)  0.1261E-05 (  3,  2, 33)  0.4865E-07 (  2,  2, 33)

 NO OUTPUT CONTROL FOR STRESS PERIOD    1   TIME STEP  54


                                          ================================================
                                                         FROM TIME =  0.54000     TO   0.55000    

 
 SOLVING FOR HEAD 
 FLOW MODEL IS TRANSIENT
 FLOW MODEL CONTAINS CONSTANT-HEAD CELLS


 MAXIMUM STEPSIZE DURING WHICH ANY PARTICLE CANNOT MOVE MORE THAN ONE CELL
 = 0.7923    (WHEN MIN. R.F.=1)  AT K=   3, I=   2, J=  33

 MAXIMUM STEPSIZE WHICH MEETS STABILITY CRITERION OF THE ADVECTION TERM
 (FOR PURE FINITE-DIFFERENCE OPTION, MIXELM=0) 
 = 0.5437    (WHEN MIN. R.F.=1)  AT K=   3, I=   2, J=  32


 TOTAL NUMBER OF POINT SOURCES/SINKS PRESENT IN THE FLOW MODEL =   240

 MAXIMUM STEPSIZE WHICH MEETS STABILITY CRITERION OF THE SINK & SOURCE TERM
 = 0.1000E+31(WHEN MIN. R.F.=1)  AT K=   0, I=   0, J=   0

 MAXIMUM STEPSIZE WHICH MEETS STABILITY CRITERION OF THE DISPERSION TERM
 = 0.3742E-01(WHEN MIN. R.F.=1)  AT K=   3, I=   2, J=  32


     1 CALLS TO GCG PACKAGE FOR TRANSPORT TIME STEP   1 IN FLOW TIME STEP  55 STRESS PERIOD   1
     5 TOTAL ITERATIONS
  MAXIMUM CONCENTRATION CHANGES FOR EACH ITERATION:
  MAX. CHANGE LAYER,ROW,COL MAX. CHANGE LAYER,ROW,COL MAX. CHANGE LAYER,ROW,COL MAX. CHANGE LAYER,ROW,COL MAX. CHANGE LAYER,ROW,COL
 ------------------------------------------------------------------------------------------------------------------------------------
   0.2444E-02 (  2,  3, 53)  0.2223E-03 (  3,  2, 33)  0.1208E-04 (  4,  2, 33)  0.1251E-05 (  3,  2, 33)  0.4828E-07 (  2,  2, 33)

 NO OUTPUT CONTROL FOR STRESS PERIOD    1   TIME STEP  55


                                          ================================================
                                                         FROM TIME =  0.55000     TO   0.56000    

 
 SOLVING FOR HEAD 
 FLOW MODEL IS TRANSIENT
 FLOW MODEL CONTAINS CONSTANT-HEAD CELLS


 MAXIMUM STEPSIZE DURING WHICH ANY PARTICLE CANNOT MOVE MORE THAN ONE CELL
 = 0.7926    (WHEN MIN. R.F.=1)  AT K=   3, I=   2, J=  33

 MAXIMUM STEPSIZE WHICH MEETS STABILITY CRITERION OF THE ADVECTION TERM
 (FOR PURE FINITE-DIFFERENCE OPTION, MIXELM=0) 
 = 0.5439    (WHEN MIN. R.F.=1)  AT K=   3, I=   2, J=  32


 TOTAL NUMBER OF POINT SOURCES/SINKS PRESENT IN THE FLOW MODEL =   240

 MAXIMUM STEPSIZE WHICH MEETS STABILITY CRITERION OF THE SINK & SOURCE TERM
 = 0.1000E+31(WHEN MIN. R.F.=1)  AT K=   0, I=   0, J=   0

 MAXIMUM STEPSIZE WHICH MEETS STABILITY CRITERION OF THE DISPERSION TERM
 = 0.3743E-01(WHEN MIN. R.F.=1)  AT K=   3, I=   2, J=  32


     1 CALLS TO GCG PACKAGE FOR TRANSPORT TIME STEP   1 IN FLOW TIME STEP  56 STRESS PERIOD   1
     5 TOTAL ITERATIONS
  MAXIMUM CONCENTRATION CHANGES FOR EACH ITERATION:
  MAX. CHANGE LAYER,ROW,COL MAX. CHANGE LAYER,ROW,COL MAX. CHANGE LAYER,ROW,COL MAX. CHANGE LAYER,ROW,COL MAX. CHANGE LAYER,ROW,COL
 ------------------------------------------------------------------------------------------------------------------------------------
   0.2430E-02 (  2,  3, 53)  0.2203E-03 (  3,  2, 33)  0.1198E-04 (  4,  2, 33)  0.1240E-05 (  3,  2, 33)  0.4793E-07 (  2,  2, 33)

 NO OUTPUT CONTROL FOR STRESS PERIOD    1   TIME STEP  56


                                          ================================================
                                                         FROM TIME =  0.56000     TO   0.57000    

 
 SOLVING FOR HEAD 
 FLOW MODEL IS TRANSIENT
 FLOW MODEL CONTAINS CONSTANT-HEAD CELLS


 MAXIMUM STEPSIZE DURING WHICH ANY PARTICLE CANNOT MOVE MORE THAN ONE CELL
 = 0.7928    (WHEN MIN. R.F.=1)  AT K=   3, I=   2, J=  33

 MAXIMUM STEPSIZE WHICH MEETS STABILITY CRITERION OF THE ADVECTION TERM
 (FOR PURE FINITE-DIFFERENCE OPTION, MIXELM=0) 
 = 0.5441    (WHEN MIN. R.F.=1)  AT K=   3, I=   2, J=  32


 TOTAL NUMBER OF POINT SOURCES/SINKS PRESENT IN THE FLOW MODEL =   240

 MAXIMUM STEPSIZE WHICH MEETS STABILITY CRITERION OF THE SINK & SOURCE TERM
 = 0.1000E+31(WHEN MIN. R.F.=1)  AT K=   0, I=   0, J=   0

 MAXIMUM STEPSIZE WHICH MEETS STABILITY CRITERION OF THE DISPERSION TERM
 = 0.3745E-01(WHEN MIN. R.F.=1)  AT K=   3, I=   2, J=  32


     1 CALLS TO GCG PACKAGE FOR TRANSPORT TIME STEP   1 IN FLOW TIME STEP  57 STRESS PERIOD   1
     5 TOTAL ITERATIONS
  MAXIMUM CONCENTRATION CHANGES FOR EACH ITERATION:
  MAX. CHANGE LAYER,ROW,COL MAX. CHANGE LAYER,ROW,COL MAX. CHANGE LAYER,ROW,COL MAX. CHANGE LAYER,ROW,COL MAX. CHANGE LAYER,ROW,COL
 ------------------------------------------------------------------------------------------------------------------------------------
   0.2416E-02 (  2,  3, 53)  0.2182E-03 (  3,  2, 33)  0.1187E-04 (  4,  2, 33)  0.1230E-05 (  3,  2, 33)  0.4757E-07 (  2,  2, 33)

 NO OUTPUT CONTROL FOR STRESS PERIOD    1   TIME STEP  57


                                          ================================================
                                                         FROM TIME =  0.57000     TO   0.58000    

 
 SOLVING FOR HEAD 
 FLOW MODEL IS TRANSIENT
 FLOW MODEL CONTAINS CONSTANT-HEAD CELLS


 MAXIMUM STEPSIZE DURING WHICH ANY PARTICLE CANNOT MOVE MORE THAN ONE CELL
 = 0.7931    (WHEN MIN. R.F.=1)  AT K=   3, I=   2, J=  33

 MAXIMUM STEPSIZE WHICH MEETS STABILITY CRITERION OF THE ADVECTION TERM
 (FOR PURE FINITE-DIFFERENCE OPTION, MIXELM=0) 
 = 0.5443    (WHEN MIN. R.F.=1)  AT K=   3, I=   2, J=  32


 TOTAL NUMBER OF POINT SOURCES/SINKS PRESENT IN THE FLOW MODEL =   240

 MAXIMUM STEPSIZE WHICH MEETS STABILITY CRITERION OF THE SINK & SOURCE TERM
 = 0.1000E+31(WHEN MIN. R.F.=1)  AT K=   0, I=   0, J=   0

 MAXIMUM STEPSIZE WHICH MEETS STABILITY CRITERION OF THE DISPERSION TERM
 = 0.3746E-01(WHEN MIN. R.F.=1)  AT K=   3, I=   2, J=  32


     1 CALLS TO GCG PACKAGE FOR TRANSPORT TIME STEP   1 IN FLOW TIME STEP  58 STRESS PERIOD   1
     5 TOTAL ITERATIONS
  MAXIMUM CONCENTRATION CHANGES FOR EACH ITERATION:
  MAX. CHANGE LAYER,ROW,COL MAX. CHANGE LAYER,ROW,COL MAX. CHANGE LAYER,ROW,COL MAX. CHANGE LAYER,ROW,COL MAX. CHANGE LAYER,ROW,COL
 ------------------------------------------------------------------------------------------------------------------------------------
   0.2401E-02 (  2,  3, 53)  0.2162E-03 (  3,  2, 33)  0.1177E-04 (  4,  2, 33)  0.1220E-05 (  3,  2, 33)  0.4723E-07 (  2,  2, 33)

 NO OUTPUT CONTROL FOR STRESS PERIOD    1   TIME STEP  58


                                          ================================================
                                                         FROM TIME =  0.58000     TO   0.59000    

 
 SOLVING FOR HEAD 
 FLOW MODEL IS TRANSIENT
 FLOW MODEL CONTAINS CONSTANT-HEAD CELLS


 MAXIMUM STEPSIZE DURING WHICH ANY PARTICLE CANNOT MOVE MORE THAN ONE CELL
 = 0.7934    (WHEN MIN. R.F.=1)  AT K=   3, I=   2, J=  33

 MAXIMUM STEPSIZE WHICH MEETS STABILITY CRITERION OF THE ADVECTION TERM
 (FOR PURE FINITE-DIFFERENCE OPTION, MIXELM=0) 
 = 0.5445    (WHEN MIN. R.F.=1)  AT K=   3, I=   2, J=  32


 TOTAL NUMBER OF POINT SOURCES/SINKS PRESENT IN THE FLOW MODEL =   240

 MAXIMUM STEPSIZE WHICH MEETS STABILITY CRITERION OF THE SINK & SOURCE TERM
 = 0.1000E+31(WHEN MIN. R.F.=1)  AT K=   0, I=   0, J=   0

 MAXIMUM STEPSIZE WHICH MEETS STABILITY CRITERION OF THE DISPERSION TERM
 = 0.3747E-01(WHEN MIN. R.F.=1)  AT K=   3, I=   2, J=  32


     1 CALLS TO GCG PACKAGE FOR TRANSPORT TIME STEP   1 IN FLOW TIME STEP  59 STRESS PERIOD   1
     5 TOTAL ITERATIONS
  MAXIMUM CONCENTRATION CHANGES FOR EACH ITERATION:
  MAX. CHANGE LAYER,ROW,COL MAX. CHANGE LAYER,ROW,COL MAX. CHANGE LAYER,ROW,COL MAX. CHANGE LAYER,ROW,COL MAX. CHANGE LAYER,ROW,COL
 ------------------------------------------------------------------------------------------------------------------------------------
   0.2387E-02 (  2,  3, 53)  0.2143E-03 (  3,  2, 33)  0.1168E-04 (  4,  2, 33)  0.1210E-05 (  3,  2, 33)  0.4689E-07 (  2,  2, 33)

 NO OUTPUT CONTROL FOR STRESS PERIOD    1   TIME STEP  59


                                          ================================================
                                                         FROM TIME =  0.59000     TO   0.60000    

 
 SOLVING FOR HEAD 
 FLOW MODEL IS TRANSIENT
 FLOW MODEL CONTAINS CONSTANT-HEAD CELLS


 MAXIMUM STEPSIZE DURING WHICH ANY PARTICLE CANNOT MOVE MORE THAN ONE CELL
 = 0.7937    (WHEN MIN. R.F.=1)  AT K=   3, I=   2, J=  33

 MAXIMUM STEPSIZE WHICH MEETS STABILITY CRITERION OF THE ADVECTION TERM
 (FOR PURE FINITE-DIFFERENCE OPTION, MIXELM=0) 
 = 0.5447    (WHEN MIN. R.F.=1)  AT K=   3, I=   2, J=  32


 TOTAL NUMBER OF POINT SOURCES/SINKS PRESENT IN THE FLOW MODEL =   240

 MAXIMUM STEPSIZE WHICH MEETS STABILITY CRITERION OF THE SINK & SOURCE TERM
 = 0.1000E+31(WHEN MIN. R.F.=1)  AT K=   0, I=   0, J=   0

 MAXIMUM STEPSIZE WHICH MEETS STABILITY CRITERION OF THE DISPERSION TERM
 = 0.3749E-01(WHEN MIN. R.F.=1)  AT K=   3, I=   2, J=  32


     1 CALLS TO GCG PACKAGE FOR TRANSPORT TIME STEP   1 IN FLOW TIME STEP  60 STRESS PERIOD   1
     5 TOTAL ITERATIONS
  MAXIMUM CONCENTRATION CHANGES FOR EACH ITERATION:
  MAX. CHANGE LAYER,ROW,COL MAX. CHANGE LAYER,ROW,COL MAX. CHANGE LAYER,ROW,COL MAX. CHANGE LAYER,ROW,COL MAX. CHANGE LAYER,ROW,COL
 ------------------------------------------------------------------------------------------------------------------------------------
   0.2373E-02 (  2,  3, 53)  0.2124E-03 (  3,  2, 33)  0.1158E-04 (  4,  2, 33)  0.1201E-05 (  3,  2, 33)  0.4656E-07 (  2,  2, 33)

 NO OUTPUT CONTROL FOR STRESS PERIOD    1   TIME STEP  60


                                          ================================================
                                                         FROM TIME =  0.60000     TO   0.61000    

 
 SOLVING FOR HEAD 
 FLOW MODEL IS TRANSIENT
 FLOW MODEL CONTAINS CONSTANT-HEAD CELLS


 MAXIMUM STEPSIZE DURING WHICH ANY PARTICLE CANNOT MOVE MORE THAN ONE CELL
 = 0.7940    (WHEN MIN. R.F.=1)  AT K=   3, I=   2, J=  33

 MAXIMUM STEPSIZE WHICH MEETS STABILITY CRITERION OF THE ADVECTION TERM
 (FOR PURE FINITE-DIFFERENCE OPTION, MIXELM=0) 
 = 0.5449    (WHEN MIN. R.F.=1)  AT K=   3, I=   2, J=  32


 TOTAL NUMBER OF POINT SOURCES/SINKS PRESENT IN THE FLOW MODEL =   240

 MAXIMUM STEPSIZE WHICH MEETS STABILITY CRITERION OF THE SINK & SOURCE TERM
 = 0.1000E+31(WHEN MIN. R.F.=1)  AT K=   0, I=   0, J=   0

 MAXIMUM STEPSIZE WHICH MEETS STABILITY CRITERION OF THE DISPERSION TERM
 = 0.3750E-01(WHEN MIN. R.F.=1)  AT K=   3, I=   2, J=  32


     1 CALLS TO GCG PACKAGE FOR TRANSPORT TIME STEP   1 IN FLOW TIME STEP  61 STRESS PERIOD   1
     5 TOTAL ITERATIONS
  MAXIMUM CONCENTRATION CHANGES FOR EACH ITERATION:
  MAX. CHANGE LAYER,ROW,COL MAX. CHANGE LAYER,ROW,COL MAX. CHANGE LAYER,ROW,COL MAX. CHANGE LAYER,ROW,COL MAX. CHANGE LAYER,ROW,COL
 ------------------------------------------------------------------------------------------------------------------------------------
   0.2359E-02 (  2,  3, 53)  0.2106E-03 (  3,  2, 33)  0.1149E-04 (  4,  2, 33)  0.1191E-05 (  3,  2, 33)  0.4624E-07 (  2,  2, 33)

 NO OUTPUT CONTROL FOR STRESS PERIOD    1   TIME STEP  61


                                          ================================================
                                                         FROM TIME =  0.61000     TO   0.62000    

 
 SOLVING FOR HEAD 
 FLOW MODEL IS TRANSIENT
 FLOW MODEL CONTAINS CONSTANT-HEAD CELLS


 MAXIMUM STEPSIZE DURING WHICH ANY PARTICLE CANNOT MOVE MORE THAN ONE CELL
 = 0.7942    (WHEN MIN. R.F.=1)  AT K=   3, I=   2, J=  33

 MAXIMUM STEPSIZE WHICH MEETS STABILITY CRITERION OF THE ADVECTION TERM
 (FOR PURE FINITE-DIFFERENCE OPTION, MIXELM=0) 
 = 0.5451    (WHEN MIN. R.F.=1)  AT K=   3, I=   2, J=  32


 TOTAL NUMBER OF POINT SOURCES/SINKS PRESENT IN THE FLOW MODEL =   240

 MAXIMUM STEPSIZE WHICH MEETS STABILITY CRITERION OF THE SINK & SOURCE TERM
 = 0.1000E+31(WHEN MIN. R.F.=1)  AT K=   0, I=   0, J=   0

 MAXIMUM STEPSIZE WHICH MEETS STABILITY CRITERION OF THE DISPERSION TERM
 = 0.3751E-01(WHEN MIN. R.F.=1)  AT K=   3, I=   2, J=  32


     1 CALLS TO GCG PACKAGE FOR TRANSPORT TIME STEP   1 IN FLOW TIME STEP  62 STRESS PERIOD   1
     5 TOTAL ITERATIONS
  MAXIMUM CONCENTRATION CHANGES FOR EACH ITERATION:
  MAX. CHANGE LAYER,ROW,COL MAX. CHANGE LAYER,ROW,COL MAX. CHANGE LAYER,ROW,COL MAX. CHANGE LAYER,ROW,COL MAX. CHANGE LAYER,ROW,COL
 ------------------------------------------------------------------------------------------------------------------------------------
   0.2345E-02 (  2,  3, 53)  0.2088E-03 (  3,  2, 33)  0.1139E-04 (  4,  2, 33)  0.1182E-05 (  3,  2, 33)  0.4592E-07 (  2,  2, 33)

 NO OUTPUT CONTROL FOR STRESS PERIOD    1   TIME STEP  62


                                          ================================================
                                                         FROM TIME =  0.62000     TO   0.63000    

 
 SOLVING FOR HEAD 
 FLOW MODEL IS TRANSIENT
 FLOW MODEL CONTAINS CONSTANT-HEAD CELLS


 MAXIMUM STEPSIZE DURING WHICH ANY PARTICLE CANNOT MOVE MORE THAN ONE CELL
 = 0.7945    (WHEN MIN. R.F.=1)  AT K=   3, I=   2, J=  33

 MAXIMUM STEPSIZE WHICH MEETS STABILITY CRITERION OF THE ADVECTION TERM
 (FOR PURE FINITE-DIFFERENCE OPTION, MIXELM=0) 
 = 0.5453    (WHEN MIN. R.F.=1)  AT K=   3, I=   2, J=  32


 TOTAL NUMBER OF POINT SOURCES/SINKS PRESENT IN THE FLOW MODEL =   240

 MAXIMUM STEPSIZE WHICH MEETS STABILITY CRITERION OF THE SINK & SOURCE TERM
 = 0.1000E+31(WHEN MIN. R.F.=1)  AT K=   0, I=   0, J=   0

 MAXIMUM STEPSIZE WHICH MEETS STABILITY CRITERION OF THE DISPERSION TERM
 = 0.3753E-01(WHEN MIN. R.F.=1)  AT K=   3, I=   2, J=  32


     1 CALLS TO GCG PACKAGE FOR TRANSPORT TIME STEP   1 IN FLOW TIME STEP  63 STRESS PERIOD   1
     5 TOTAL ITERATIONS
  MAXIMUM CONCENTRATION CHANGES FOR EACH ITERATION:
  MAX. CHANGE LAYER,ROW,COL MAX. CHANGE LAYER,ROW,COL MAX. CHANGE LAYER,ROW,COL MAX. CHANGE LAYER,ROW,COL MAX. CHANGE LAYER,ROW,COL
 ------------------------------------------------------------------------------------------------------------------------------------
   0.2331E-02 (  2,  3, 53)  0.2070E-03 (  3,  2, 33)  0.1130E-04 (  4,  2, 33)  0.1173E-05 (  3,  2, 33)  0.4560E-07 (  2,  2, 33)

 NO OUTPUT CONTROL FOR STRESS PERIOD    1   TIME STEP  63


                                          ================================================
                                                         FROM TIME =  0.63000     TO   0.64000    

 
 SOLVING FOR HEAD 
 FLOW MODEL IS TRANSIENT
 FLOW MODEL CONTAINS CONSTANT-HEAD CELLS


 MAXIMUM STEPSIZE DURING WHICH ANY PARTICLE CANNOT MOVE MORE THAN ONE CELL
 = 0.7948    (WHEN MIN. R.F.=1)  AT K=   3, I=   2, J=  33

 MAXIMUM STEPSIZE WHICH MEETS STABILITY CRITERION OF THE ADVECTION TERM
 (FOR PURE FINITE-DIFFERENCE OPTION, MIXELM=0) 
 = 0.5455    (WHEN MIN. R.F.=1)  AT K=   3, I=   2, J=  32


 TOTAL NUMBER OF POINT SOURCES/SINKS PRESENT IN THE FLOW MODEL =   240

 MAXIMUM STEPSIZE WHICH MEETS STABILITY CRITERION OF THE SINK & SOURCE TERM
 = 0.1000E+31(WHEN MIN. R.F.=1)  AT K=   0, I=   0, J=   0

 MAXIMUM STEPSIZE WHICH MEETS STABILITY CRITERION OF THE DISPERSION TERM
 = 0.3754E-01(WHEN MIN. R.F.=1)  AT K=   3, I=   2, J=  32


     1 CALLS TO GCG PACKAGE FOR TRANSPORT TIME STEP   1 IN FLOW TIME STEP  64 STRESS PERIOD   1
     5 TOTAL ITERATIONS
  MAXIMUM CONCENTRATION CHANGES FOR EACH ITERATION:
  MAX. CHANGE LAYER,ROW,COL MAX. CHANGE LAYER,ROW,COL MAX. CHANGE LAYER,ROW,COL MAX. CHANGE LAYER,ROW,COL MAX. CHANGE LAYER,ROW,COL
 ------------------------------------------------------------------------------------------------------------------------------------
   0.2317E-02 (  2,  3, 53)  0.2052E-03 (  3,  2, 33)  0.1121E-04 (  4,  2, 33)  0.1164E-05 (  3,  2, 33)  0.4530E-07 (  2,  2, 33)

 NO OUTPUT CONTROL FOR STRESS PERIOD    1   TIME STEP  64


                                          ================================================
                                                         FROM TIME =  0.64000     TO   0.65000    

 
 SOLVING FOR HEAD 
 FLOW MODEL IS TRANSIENT
 FLOW MODEL CONTAINS CONSTANT-HEAD CELLS


 MAXIMUM STEPSIZE DURING WHICH ANY PARTICLE CANNOT MOVE MORE THAN ONE CELL
 = 0.7951    (WHEN MIN. R.F.=1)  AT K=   3, I=   2, J=  33

 MAXIMUM STEPSIZE WHICH MEETS STABILITY CRITERION OF THE ADVECTION TERM
 (FOR PURE FINITE-DIFFERENCE OPTION, MIXELM=0) 
 = 0.5456    (WHEN MIN. R.F.=1)  AT K=   3, I=   2, J=  32


 TOTAL NUMBER OF POINT SOURCES/SINKS PRESENT IN THE FLOW MODEL =   240

 MAXIMUM STEPSIZE WHICH MEETS STABILITY CRITERION OF THE SINK & SOURCE TERM
 = 0.1000E+31(WHEN MIN. R.F.=1)  AT K=   0, I=   0, J=   0

 MAXIMUM STEPSIZE WHICH MEETS STABILITY CRITERION OF THE DISPERSION TERM
 = 0.3755E-01(WHEN MIN. R.F.=1)  AT K=   3, I=   2, J=  32


     1 CALLS TO GCG PACKAGE FOR TRANSPORT TIME STEP   1 IN FLOW TIME STEP  65 STRESS PERIOD   1
     5 TOTAL ITERATIONS
  MAXIMUM CONCENTRATION CHANGES FOR EACH ITERATION:
  MAX. CHANGE LAYER,ROW,COL MAX. CHANGE LAYER,ROW,COL MAX. CHANGE LAYER,ROW,COL MAX. CHANGE LAYER,ROW,COL MAX. CHANGE LAYER,ROW,COL
 ------------------------------------------------------------------------------------------------------------------------------------
   0.2303E-02 (  2,  3, 53)  0.2035E-03 (  3,  2, 33)  0.1113E-04 (  4,  2, 33)  0.1155E-05 (  3,  2, 33)  0.4499E-07 (  2,  2, 33)

 NO OUTPUT CONTROL FOR STRESS PERIOD    1   TIME STEP  65


                                          ================================================
                                                         FROM TIME =  0.65000     TO   0.66000    

 
 SOLVING FOR HEAD 
 FLOW MODEL IS TRANSIENT
 FLOW MODEL CONTAINS CONSTANT-HEAD CELLS


 MAXIMUM STEPSIZE DURING WHICH ANY PARTICLE CANNOT MOVE MORE THAN ONE CELL
 = 0.7953    (WHEN MIN. R.F.=1)  AT K=   3, I=   2, J=  33

 MAXIMUM STEPSIZE WHICH MEETS STABILITY CRITERION OF THE ADVECTION TERM
 (FOR PURE FINITE-DIFFERENCE OPTION, MIXELM=0) 
 = 0.5458    (WHEN MIN. R.F.=1)  AT K=   3, I=   2, J=  32


 TOTAL NUMBER OF POINT SOURCES/SINKS PRESENT IN THE FLOW MODEL =   240

 MAXIMUM STEPSIZE WHICH MEETS STABILITY CRITERION OF THE SINK & SOURCE TERM
 = 0.1000E+31(WHEN MIN. R.F.=1)  AT K=   0, I=   0, J=   0

 MAXIMUM STEPSIZE WHICH MEETS STABILITY CRITERION OF THE DISPERSION TERM
 = 0.3756E-01(WHEN MIN. R.F.=1)  AT K=   3, I=   2, J=  32


     1 CALLS TO GCG PACKAGE FOR TRANSPORT TIME STEP   1 IN FLOW TIME STEP  66 STRESS PERIOD   1
     5 TOTAL ITERATIONS
  MAXIMUM CONCENTRATION CHANGES FOR EACH ITERATION:
  MAX. CHANGE LAYER,ROW,COL MAX. CHANGE LAYER,ROW,COL MAX. CHANGE LAYER,ROW,COL MAX. CHANGE LAYER,ROW,COL MAX. CHANGE LAYER,ROW,COL
 ------------------------------------------------------------------------------------------------------------------------------------
   0.2289E-02 (  2,  3, 53)  0.2019E-03 (  3,  2, 33)  0.1104E-04 (  4,  2, 33)  0.1146E-05 (  3,  2, 33)  0.4470E-07 (  2,  2, 33)

 NO OUTPUT CONTROL FOR STRESS PERIOD    1   TIME STEP  66


                                          ================================================
                                                         FROM TIME =  0.66000     TO   0.67000    

 
 SOLVING FOR HEAD 
 FLOW MODEL IS TRANSIENT
 FLOW MODEL CONTAINS CONSTANT-HEAD CELLS


 MAXIMUM STEPSIZE DURING WHICH ANY PARTICLE CANNOT MOVE MORE THAN ONE CELL
 = 0.7956    (WHEN MIN. R.F.=1)  AT K=   3, I=   2, J=  33

 MAXIMUM STEPSIZE WHICH MEETS STABILITY CRITERION OF THE ADVECTION TERM
 (FOR PURE FINITE-DIFFERENCE OPTION, MIXELM=0) 
 = 0.5460    (WHEN MIN. R.F.=1)  AT K=   3, I=   2, J=  32


 TOTAL NUMBER OF POINT SOURCES/SINKS PRESENT IN THE FLOW MODEL =   240

 MAXIMUM STEPSIZE WHICH MEETS STABILITY CRITERION OF THE SINK & SOURCE TERM
 = 0.1000E+31(WHEN MIN. R.F.=1)  AT K=   0, I=   0, J=   0

 MAXIMUM STEPSIZE WHICH MEETS STABILITY CRITERION OF THE DISPERSION TERM
 = 0.3758E-01(WHEN MIN. R.F.=1)  AT K=   3, I=   2, J=  32


     1 CALLS TO GCG PACKAGE FOR TRANSPORT TIME STEP   1 IN FLOW TIME STEP  67 STRESS PERIOD   1
     5 TOTAL ITERATIONS
  MAXIMUM CONCENTRATION CHANGES FOR EACH ITERATION:
  MAX. CHANGE LAYER,ROW,COL MAX. CHANGE LAYER,ROW,COL MAX. CHANGE LAYER,ROW,COL MAX. CHANGE LAYER,ROW,COL MAX. CHANGE LAYER,ROW,COL
 ------------------------------------------------------------------------------------------------------------------------------------
   0.2275E-02 (  2,  3, 53)  0.2003E-03 (  3,  2, 33)  0.1096E-04 (  4,  2, 33)  0.1138E-05 (  3,  2, 33)  0.4440E-07 (  2,  2, 33)

 NO OUTPUT CONTROL FOR STRESS PERIOD    1   TIME STEP  67


                                          ================================================
                                                         FROM TIME =  0.67000     TO   0.68000    

 
 SOLVING FOR HEAD 
 FLOW MODEL IS TRANSIENT
 FLOW MODEL CONTAINS CONSTANT-HEAD CELLS


 MAXIMUM STEPSIZE DURING WHICH ANY PARTICLE CANNOT MOVE MORE THAN ONE CELL
 = 0.7959    (WHEN MIN. R.F.=1)  AT K=   3, I=   2, J=  33

 MAXIMUM STEPSIZE WHICH MEETS STABILITY CRITERION OF THE ADVECTION TERM
 (FOR PURE FINITE-DIFFERENCE OPTION, MIXELM=0) 
 = 0.5462    (WHEN MIN. R.F.=1)  AT K=   3, I=   2, J=  32


 TOTAL NUMBER OF POINT SOURCES/SINKS PRESENT IN THE FLOW MODEL =   240

 MAXIMUM STEPSIZE WHICH MEETS STABILITY CRITERION OF THE SINK & SOURCE TERM
 = 0.1000E+31(WHEN MIN. R.F.=1)  AT K=   0, I=   0, J=   0

 MAXIMUM STEPSIZE WHICH MEETS STABILITY CRITERION OF THE DISPERSION TERM
 = 0.3759E-01(WHEN MIN. R.F.=1)  AT K=   3, I=   2, J=  32


     1 CALLS TO GCG PACKAGE FOR TRANSPORT TIME STEP   1 IN FLOW TIME STEP  68 STRESS PERIOD   1
     5 TOTAL ITERATIONS
  MAXIMUM CONCENTRATION CHANGES FOR EACH ITERATION:
  MAX. CHANGE LAYER,ROW,COL MAX. CHANGE LAYER,ROW,COL MAX. CHANGE LAYER,ROW,COL MAX. CHANGE LAYER,ROW,COL MAX. CHANGE LAYER,ROW,COL
 ------------------------------------------------------------------------------------------------------------------------------------
   0.2261E-02 (  2,  3, 53)  0.1987E-03 (  3,  2, 33)  0.1088E-04 (  4,  2, 33)  0.1129E-05 (  3,  2, 33)  0.4412E-07 (  2,  2, 33)

 NO OUTPUT CONTROL FOR STRESS PERIOD    1   TIME STEP  68


                                          ================================================
                                                         FROM TIME =  0.68000     TO   0.69000    

 
 SOLVING FOR HEAD 
 FLOW MODEL IS TRANSIENT
 FLOW MODEL CONTAINS CONSTANT-HEAD CELLS


 MAXIMUM STEPSIZE DURING WHICH ANY PARTICLE CANNOT MOVE MORE THAN ONE CELL
 = 0.7961    (WHEN MIN. R.F.=1)  AT K=   3, I=   2, J=  33

 MAXIMUM STEPSIZE WHICH MEETS STABILITY CRITERION OF THE ADVECTION TERM
 (FOR PURE FINITE-DIFFERENCE OPTION, MIXELM=0) 
 = 0.5464    (WHEN MIN. R.F.=1)  AT K=   3, I=   2, J=  32


 TOTAL NUMBER OF POINT SOURCES/SINKS PRESENT IN THE FLOW MODEL =   240

 MAXIMUM STEPSIZE WHICH MEETS STABILITY CRITERION OF THE SINK & SOURCE TERM
 = 0.1000E+31(WHEN MIN. R.F.=1)  AT K=   0, I=   0, J=   0

 MAXIMUM STEPSIZE WHICH MEETS STABILITY CRITERION OF THE DISPERSION TERM
 = 0.3760E-01(WHEN MIN. R.F.=1)  AT K=   3, I=   2, J=  32


     1 CALLS TO GCG PACKAGE FOR TRANSPORT TIME STEP   1 IN FLOW TIME STEP  69 STRESS PERIOD   1
     5 TOTAL ITERATIONS
  MAXIMUM CONCENTRATION CHANGES FOR EACH ITERATION:
  MAX. CHANGE LAYER,ROW,COL MAX. CHANGE LAYER,ROW,COL MAX. CHANGE LAYER,ROW,COL MAX. CHANGE LAYER,ROW,COL MAX. CHANGE LAYER,ROW,COL
 ------------------------------------------------------------------------------------------------------------------------------------
   0.2247E-02 (  2,  3, 53)  0.1971E-03 (  3,  2, 33)  0.1079E-04 (  4,  2, 33)  0.1121E-05 (  3,  2, 33)  0.4383E-07 (  2,  2, 33)

 NO OUTPUT CONTROL FOR STRESS PERIOD    1   TIME STEP  69


                                          ================================================
                                                         FROM TIME =  0.69000     TO   0.70000    

 
 SOLVING FOR HEAD 
 FLOW MODEL IS TRANSIENT
 FLOW MODEL CONTAINS CONSTANT-HEAD CELLS


 MAXIMUM STEPSIZE DURING WHICH ANY PARTICLE CANNOT MOVE MORE THAN ONE CELL
 = 0.7964    (WHEN MIN. R.F.=1)  AT K=   3, I=   2, J=  33

 MAXIMUM STEPSIZE WHICH MEETS STABILITY CRITERION OF THE ADVECTION TERM
 (FOR PURE FINITE-DIFFERENCE OPTION, MIXELM=0) 
 = 0.5466    (WHEN MIN. R.F.=1)  AT K=   3, I=   2, J=  32


 TOTAL NUMBER OF POINT SOURCES/SINKS PRESENT IN THE FLOW MODEL =   240

 MAXIMUM STEPSIZE WHICH MEETS STABILITY CRITERION OF THE SINK & SOURCE TERM
 = 0.1000E+31(WHEN MIN. R.F.=1)  AT K=   0, I=   0, J=   0

 MAXIMUM STEPSIZE WHICH MEETS STABILITY CRITERION OF THE DISPERSION TERM
 = 0.3762E-01(WHEN MIN. R.F.=1)  AT K=   3, I=   2, J=  32


     1 CALLS TO GCG PACKAGE FOR TRANSPORT TIME STEP   1 IN FLOW TIME STEP  70 STRESS PERIOD   1
     5 TOTAL ITERATIONS
  MAXIMUM CONCENTRATION CHANGES FOR EACH ITERATION:
  MAX. CHANGE LAYER,ROW,COL MAX. CHANGE LAYER,ROW,COL MAX. CHANGE LAYER,ROW,COL MAX. CHANGE LAYER,ROW,COL MAX. CHANGE LAYER,ROW,COL
 ------------------------------------------------------------------------------------------------------------------------------------
   0.2233E-02 (  2,  3, 53)  0.1956E-03 (  3,  2, 33)  0.1072E-04 (  4,  2, 33)  0.1113E-05 (  3,  2, 33)  0.4356E-07 (  2,  2, 33)

 NO OUTPUT CONTROL FOR STRESS PERIOD    1   TIME STEP  70


                                          ================================================
                                                         FROM TIME =  0.70000     TO   0.71000    

 
 SOLVING FOR HEAD 
 FLOW MODEL IS TRANSIENT
 FLOW MODEL CONTAINS CONSTANT-HEAD CELLS


 MAXIMUM STEPSIZE DURING WHICH ANY PARTICLE CANNOT MOVE MORE THAN ONE CELL
 = 0.7967    (WHEN MIN. R.F.=1)  AT K=   3, I=   2, J=  33

 MAXIMUM STEPSIZE WHICH MEETS STABILITY CRITERION OF THE ADVECTION TERM
 (FOR PURE FINITE-DIFFERENCE OPTION, MIXELM=0) 
 = 0.5468    (WHEN MIN. R.F.=1)  AT K=   3, I=   2, J=  32


 TOTAL NUMBER OF POINT SOURCES/SINKS PRESENT IN THE FLOW MODEL =   240

 MAXIMUM STEPSIZE WHICH MEETS STABILITY CRITERION OF THE SINK & SOURCE TERM
 = 0.1000E+31(WHEN MIN. R.F.=1)  AT K=   0, I=   0, J=   0

 MAXIMUM STEPSIZE WHICH MEETS STABILITY CRITERION OF THE DISPERSION TERM
 = 0.3763E-01(WHEN MIN. R.F.=1)  AT K=   3, I=   2, J=  32


     1 CALLS TO GCG PACKAGE FOR TRANSPORT TIME STEP   1 IN FLOW TIME STEP  71 STRESS PERIOD   1
     5 TOTAL ITERATIONS
  MAXIMUM CONCENTRATION CHANGES FOR EACH ITERATION:
  MAX. CHANGE LAYER,ROW,COL MAX. CHANGE LAYER,ROW,COL MAX. CHANGE LAYER,ROW,COL MAX. CHANGE LAYER,ROW,COL MAX. CHANGE LAYER,ROW,COL
 ------------------------------------------------------------------------------------------------------------------------------------
   0.2219E-02 (  2,  3, 53)  0.1941E-03 (  3,  2, 33)  0.1064E-04 (  4,  2, 33)  0.1105E-05 (  3,  2, 33)  0.4328E-07 (  2,  2, 33)

 NO OUTPUT CONTROL FOR STRESS PERIOD    1   TIME STEP  71


                                          ================================================
                                                         FROM TIME =  0.71000     TO   0.72000    

 
 SOLVING FOR HEAD 
 FLOW MODEL IS TRANSIENT
 FLOW MODEL CONTAINS CONSTANT-HEAD CELLS


 MAXIMUM STEPSIZE DURING WHICH ANY PARTICLE CANNOT MOVE MORE THAN ONE CELL
 = 0.7969    (WHEN MIN. R.F.=1)  AT K=   3, I=   2, J=  33

 MAXIMUM STEPSIZE WHICH MEETS STABILITY CRITERION OF THE ADVECTION TERM
 (FOR PURE FINITE-DIFFERENCE OPTION, MIXELM=0) 
 = 0.5469    (WHEN MIN. R.F.=1)  AT K=   3, I=   2, J=  32


 TOTAL NUMBER OF POINT SOURCES/SINKS PRESENT IN THE FLOW MODEL =   240

 MAXIMUM STEPSIZE WHICH MEETS STABILITY CRITERION OF THE SINK & SOURCE TERM
 = 0.1000E+31(WHEN MIN. R.F.=1)  AT K=   0, I=   0, J=   0

 MAXIMUM STEPSIZE WHICH MEETS STABILITY CRITERION OF THE DISPERSION TERM
 = 0.3764E-01(WHEN MIN. R.F.=1)  AT K=   3, I=   2, J=  32


     1 CALLS TO GCG PACKAGE FOR TRANSPORT TIME STEP   1 IN FLOW TIME STEP  72 STRESS PERIOD   1
     5 TOTAL ITERATIONS
  MAXIMUM CONCENTRATION CHANGES FOR EACH ITERATION:
  MAX. CHANGE LAYER,ROW,COL MAX. CHANGE LAYER,ROW,COL MAX. CHANGE LAYER,ROW,COL MAX. CHANGE LAYER,ROW,COL MAX. CHANGE LAYER,ROW,COL
 ------------------------------------------------------------------------------------------------------------------------------------
   0.2205E-02 (  2,  3, 53)  0.1926E-03 (  3,  2, 33)  0.1056E-04 (  4,  2, 33)  0.1097E-05 (  3,  2, 33)  0.4301E-07 (  2,  2, 33)

 NO OUTPUT CONTROL FOR STRESS PERIOD    1   TIME STEP  72


                                          ================================================
                                                         FROM TIME =  0.72000     TO   0.73000    

 
 SOLVING FOR HEAD 
 FLOW MODEL IS TRANSIENT
 FLOW MODEL CONTAINS CONSTANT-HEAD CELLS


 MAXIMUM STEPSIZE DURING WHICH ANY PARTICLE CANNOT MOVE MORE THAN ONE CELL
 = 0.7972    (WHEN MIN. R.F.=1)  AT K=   3, I=   2, J=  33

 MAXIMUM STEPSIZE WHICH MEETS STABILITY CRITERION OF THE ADVECTION TERM
 (FOR PURE FINITE-DIFFERENCE OPTION, MIXELM=0) 
 = 0.5471    (WHEN MIN. R.F.=1)  AT K=   3, I=   2, J=  32


 TOTAL NUMBER OF POINT SOURCES/SINKS PRESENT IN THE FLOW MODEL =   240

 MAXIMUM STEPSIZE WHICH MEETS STABILITY CRITERION OF THE SINK & SOURCE TERM
 = 0.1000E+31(WHEN MIN. R.F.=1)  AT K=   0, I=   0, J=   0

 MAXIMUM STEPSIZE WHICH MEETS STABILITY CRITERION OF THE DISPERSION TERM
 = 0.3765E-01(WHEN MIN. R.F.=1)  AT K=   3, I=   2, J=  32


     1 CALLS TO GCG PACKAGE FOR TRANSPORT TIME STEP   1 IN FLOW TIME STEP  73 STRESS PERIOD   1
     5 TOTAL ITERATIONS
  MAXIMUM CONCENTRATION CHANGES FOR EACH ITERATION:
  MAX. CHANGE LAYER,ROW,COL MAX. CHANGE LAYER,ROW,COL MAX. CHANGE LAYER,ROW,COL MAX. CHANGE LAYER,ROW,COL MAX. CHANGE LAYER,ROW,COL
 ------------------------------------------------------------------------------------------------------------------------------------
   0.2191E-02 (  2,  3, 53)  0.1911E-03 (  3,  2, 33)  0.1049E-04 (  4,  2, 33)  0.1090E-05 (  3,  2, 33)  0.4275E-07 (  2,  2, 33)

 NO OUTPUT CONTROL FOR STRESS PERIOD    1   TIME STEP  73


                                          ================================================
                                                         FROM TIME =  0.73000     TO   0.74000    

 
 SOLVING FOR HEAD 
 FLOW MODEL IS TRANSIENT
 FLOW MODEL CONTAINS CONSTANT-HEAD CELLS


 MAXIMUM STEPSIZE DURING WHICH ANY PARTICLE CANNOT MOVE MORE THAN ONE CELL
 = 0.7975    (WHEN MIN. R.F.=1)  AT K=   3, I=   2, J=  33

 MAXIMUM STEPSIZE WHICH MEETS STABILITY CRITERION OF THE ADVECTION TERM
 (FOR PURE FINITE-DIFFERENCE OPTION, MIXELM=0) 
 = 0.5473    (WHEN MIN. R.F.=1)  AT K=   3, I=   2, J=  32


 TOTAL NUMBER OF POINT SOURCES/SINKS PRESENT IN THE FLOW MODEL =   240

 MAXIMUM STEPSIZE WHICH MEETS STABILITY CRITERION OF THE SINK & SOURCE TERM
 = 0.1000E+31(WHEN MIN. R.F.=1)  AT K=   0, I=   0, J=   0

 MAXIMUM STEPSIZE WHICH MEETS STABILITY CRITERION OF THE DISPERSION TERM
 = 0.3766E-01(WHEN MIN. R.F.=1)  AT K=   3, I=   2, J=  32


     1 CALLS TO GCG PACKAGE FOR TRANSPORT TIME STEP   1 IN FLOW TIME STEP  74 STRESS PERIOD   1
     5 TOTAL ITERATIONS
  MAXIMUM CONCENTRATION CHANGES FOR EACH ITERATION:
  MAX. CHANGE LAYER,ROW,COL MAX. CHANGE LAYER,ROW,COL MAX. CHANGE LAYER,ROW,COL MAX. CHANGE LAYER,ROW,COL MAX. CHANGE LAYER,ROW,COL
 ------------------------------------------------------------------------------------------------------------------------------------
   0.2178E-02 (  2,  3, 53)  0.1897E-03 (  3,  2, 33)  0.1041E-04 (  4,  2, 33)  0.1082E-05 (  3,  2, 33)  0.4249E-07 (  2,  2, 33)

 NO OUTPUT CONTROL FOR STRESS PERIOD    1   TIME STEP  74


                                          ================================================
                                                         FROM TIME =  0.74000     TO   0.75000    

 
 SOLVING FOR HEAD 
 FLOW MODEL IS TRANSIENT
 FLOW MODEL CONTAINS CONSTANT-HEAD CELLS


 MAXIMUM STEPSIZE DURING WHICH ANY PARTICLE CANNOT MOVE MORE THAN ONE CELL
 = 0.7977    (WHEN MIN. R.F.=1)  AT K=   3, I=   2, J=  33

 MAXIMUM STEPSIZE WHICH MEETS STABILITY CRITERION OF THE ADVECTION TERM
 (FOR PURE FINITE-DIFFERENCE OPTION, MIXELM=0) 
 = 0.5475    (WHEN MIN. R.F.=1)  AT K=   3, I=   2, J=  32


 TOTAL NUMBER OF POINT SOURCES/SINKS PRESENT IN THE FLOW MODEL =   240

 MAXIMUM STEPSIZE WHICH MEETS STABILITY CRITERION OF THE SINK & SOURCE TERM
 = 0.1000E+31(WHEN MIN. R.F.=1)  AT K=   0, I=   0, J=   0

 MAXIMUM STEPSIZE WHICH MEETS STABILITY CRITERION OF THE DISPERSION TERM
 = 0.3768E-01(WHEN MIN. R.F.=1)  AT K=   3, I=   2, J=  32


     1 CALLS TO GCG PACKAGE FOR TRANSPORT TIME STEP   1 IN FLOW TIME STEP  75 STRESS PERIOD   1
     5 TOTAL ITERATIONS
  MAXIMUM CONCENTRATION CHANGES FOR EACH ITERATION:
  MAX. CHANGE LAYER,ROW,COL MAX. CHANGE LAYER,ROW,COL MAX. CHANGE LAYER,ROW,COL MAX. CHANGE LAYER,ROW,COL MAX. CHANGE LAYER,ROW,COL
 ------------------------------------------------------------------------------------------------------------------------------------
   0.2164E-02 (  2,  3, 53)  0.1883E-03 (  3,  2, 33)  0.1034E-04 (  4,  2, 33)  0.1074E-05 (  3,  2, 33)  0.4223E-07 (  2,  2, 33)

 NO OUTPUT CONTROL FOR STRESS PERIOD    1   TIME STEP  75


                                          ================================================
                                                         FROM TIME =  0.75000     TO   0.76000    

 
 SOLVING FOR HEAD 
 FLOW MODEL IS TRANSIENT
 FLOW MODEL CONTAINS CONSTANT-HEAD CELLS


 MAXIMUM STEPSIZE DURING WHICH ANY PARTICLE CANNOT MOVE MORE THAN ONE CELL
 = 0.7980    (WHEN MIN. R.F.=1)  AT K=   3, I=   2, J=  33

 MAXIMUM STEPSIZE WHICH MEETS STABILITY CRITERION OF THE ADVECTION TERM
 (FOR PURE FINITE-DIFFERENCE OPTION, MIXELM=0) 
 = 0.5476    (WHEN MIN. R.F.=1)  AT K=   3, I=   2, J=  32


 TOTAL NUMBER OF POINT SOURCES/SINKS PRESENT IN THE FLOW MODEL =   240

 MAXIMUM STEPSIZE WHICH MEETS STABILITY CRITERION OF THE SINK & SOURCE TERM
 = 0.1000E+31(WHEN MIN. R.F.=1)  AT K=   0, I=   0, J=   0

 MAXIMUM STEPSIZE WHICH MEETS STABILITY CRITERION OF THE DISPERSION TERM
 = 0.3769E-01(WHEN MIN. R.F.=1)  AT K=   3, I=   2, J=  32


     1 CALLS TO GCG PACKAGE FOR TRANSPORT TIME STEP   1 IN FLOW TIME STEP  76 STRESS PERIOD   1
     5 TOTAL ITERATIONS
  MAXIMUM CONCENTRATION CHANGES FOR EACH ITERATION:
  MAX. CHANGE LAYER,ROW,COL MAX. CHANGE LAYER,ROW,COL MAX. CHANGE LAYER,ROW,COL MAX. CHANGE LAYER,ROW,COL MAX. CHANGE LAYER,ROW,COL
 ------------------------------------------------------------------------------------------------------------------------------------
   0.2150E-02 (  2,  3, 53)  0.1870E-03 (  3,  2, 33)  0.1027E-04 (  4,  2, 33)  0.1067E-05 (  3,  2, 33)  0.4198E-07 (  2,  2, 33)

 NO OUTPUT CONTROL FOR STRESS PERIOD    1   TIME STEP  76


                                          ================================================
                                                         FROM TIME =  0.76000     TO   0.77000    

 
 SOLVING FOR HEAD 
 FLOW MODEL IS TRANSIENT
 FLOW MODEL CONTAINS CONSTANT-HEAD CELLS


 MAXIMUM STEPSIZE DURING WHICH ANY PARTICLE CANNOT MOVE MORE THAN ONE CELL
 = 0.7982    (WHEN MIN. R.F.=1)  AT K=   3, I=   2, J=  33

 MAXIMUM STEPSIZE WHICH MEETS STABILITY CRITERION OF THE ADVECTION TERM
 (FOR PURE FINITE-DIFFERENCE OPTION, MIXELM=0) 
 = 0.5478    (WHEN MIN. R.F.=1)  AT K=   3, I=   2, J=  32


 TOTAL NUMBER OF POINT SOURCES/SINKS PRESENT IN THE FLOW MODEL =   240

 MAXIMUM STEPSIZE WHICH MEETS STABILITY CRITERION OF THE SINK & SOURCE TERM
 = 0.1000E+31(WHEN MIN. R.F.=1)  AT K=   0, I=   0, J=   0

 MAXIMUM STEPSIZE WHICH MEETS STABILITY CRITERION OF THE DISPERSION TERM
 = 0.3770E-01(WHEN MIN. R.F.=1)  AT K=   3, I=   2, J=  32


     1 CALLS TO GCG PACKAGE FOR TRANSPORT TIME STEP   1 IN FLOW TIME STEP  77 STRESS PERIOD   1
     5 TOTAL ITERATIONS
  MAXIMUM CONCENTRATION CHANGES FOR EACH ITERATION:
  MAX. CHANGE LAYER,ROW,COL MAX. CHANGE LAYER,ROW,COL MAX. CHANGE LAYER,ROW,COL MAX. CHANGE LAYER,ROW,COL MAX. CHANGE LAYER,ROW,COL
 ------------------------------------------------------------------------------------------------------------------------------------
   0.2137E-02 (  2,  3, 53)  0.1856E-03 (  3,  2, 33)  0.1020E-04 (  4,  2, 33)  0.1060E-05 (  3,  2, 33)  0.4173E-07 (  2,  2, 33)

 NO OUTPUT CONTROL FOR STRESS PERIOD    1   TIME STEP  77


                                          ================================================
                                                         FROM TIME =  0.77000     TO   0.78000    

 
 SOLVING FOR HEAD 
 FLOW MODEL IS TRANSIENT
 FLOW MODEL CONTAINS CONSTANT-HEAD CELLS


 MAXIMUM STEPSIZE DURING WHICH ANY PARTICLE CANNOT MOVE MORE THAN ONE CELL
 = 0.7985    (WHEN MIN. R.F.=1)  AT K=   3, I=   2, J=  33

 MAXIMUM STEPSIZE WHICH MEETS STABILITY CRITERION OF THE ADVECTION TERM
 (FOR PURE FINITE-DIFFERENCE OPTION, MIXELM=0) 
 = 0.5480    (WHEN MIN. R.F.=1)  AT K=   3, I=   2, J=  32


 TOTAL NUMBER OF POINT SOURCES/SINKS PRESENT IN THE FLOW MODEL =   240

 MAXIMUM STEPSIZE WHICH MEETS STABILITY CRITERION OF THE SINK & SOURCE TERM
 = 0.1000E+31(WHEN MIN. R.F.=1)  AT K=   0, I=   0, J=   0

 MAXIMUM STEPSIZE WHICH MEETS STABILITY CRITERION OF THE DISPERSION TERM
 = 0.3771E-01(WHEN MIN. R.F.=1)  AT K=   3, I=   2, J=  32


     1 CALLS TO GCG PACKAGE FOR TRANSPORT TIME STEP   1 IN FLOW TIME STEP  78 STRESS PERIOD   1
     5 TOTAL ITERATIONS
  MAXIMUM CONCENTRATION CHANGES FOR EACH ITERATION:
  MAX. CHANGE LAYER,ROW,COL MAX. CHANGE LAYER,ROW,COL MAX. CHANGE LAYER,ROW,COL MAX. CHANGE LAYER,ROW,COL MAX. CHANGE LAYER,ROW,COL
 ------------------------------------------------------------------------------------------------------------------------------------
   0.2123E-02 (  2,  3, 53)  0.1843E-03 (  3,  2, 33)  0.1013E-04 (  4,  2, 33)  0.1053E-05 (  3,  2, 33)  0.4148E-07 (  2,  2, 33)

 NO OUTPUT CONTROL FOR STRESS PERIOD    1   TIME STEP  78


                                          ================================================
                                                         FROM TIME =  0.78000     TO   0.79000    

 
 SOLVING FOR HEAD 
 FLOW MODEL IS TRANSIENT
 FLOW MODEL CONTAINS CONSTANT-HEAD CELLS


 MAXIMUM STEPSIZE DURING WHICH ANY PARTICLE CANNOT MOVE MORE THAN ONE CELL
 = 0.7988    (WHEN MIN. R.F.=1)  AT K=   3, I=   2, J=  33

 MAXIMUM STEPSIZE WHICH MEETS STABILITY CRITERION OF THE ADVECTION TERM
 (FOR PURE FINITE-DIFFERENCE OPTION, MIXELM=0) 
 = 0.5482    (WHEN MIN. R.F.=1)  AT K=   3, I=   2, J=  32


 TOTAL NUMBER OF POINT SOURCES/SINKS PRESENT IN THE FLOW MODEL =   240

 MAXIMUM STEPSIZE WHICH MEETS STABILITY CRITERION OF THE SINK & SOURCE TERM
 = 0.1000E+31(WHEN MIN. R.F.=1)  AT K=   0, I=   0, J=   0

 MAXIMUM STEPSIZE WHICH MEETS STABILITY CRITERION OF THE DISPERSION TERM
 = 0.3773E-01(WHEN MIN. R.F.=1)  AT K=   3, I=   2, J=  32


     1 CALLS TO GCG PACKAGE FOR TRANSPORT TIME STEP   1 IN FLOW TIME STEP  79 STRESS PERIOD   1
     5 TOTAL ITERATIONS
  MAXIMUM CONCENTRATION CHANGES FOR EACH ITERATION:
  MAX. CHANGE LAYER,ROW,COL MAX. CHANGE LAYER,ROW,COL MAX. CHANGE LAYER,ROW,COL MAX. CHANGE LAYER,ROW,COL MAX. CHANGE LAYER,ROW,COL
 ------------------------------------------------------------------------------------------------------------------------------------
   0.2109E-02 (  2,  3, 53)  0.1830E-03 (  3,  2, 33)  0.1006E-04 (  4,  2, 33)  0.1046E-05 (  3,  2, 33)  0.4124E-07 (  2,  2, 33)

 NO OUTPUT CONTROL FOR STRESS PERIOD    1   TIME STEP  79


                                          ================================================
                                                         FROM TIME =  0.79000     TO   0.80000    

 
 SOLVING FOR HEAD 
 FLOW MODEL IS TRANSIENT
 FLOW MODEL CONTAINS CONSTANT-HEAD CELLS


 MAXIMUM STEPSIZE DURING WHICH ANY PARTICLE CANNOT MOVE MORE THAN ONE CELL
 = 0.7990    (WHEN MIN. R.F.=1)  AT K=   3, I=   2, J=  33

 MAXIMUM STEPSIZE WHICH MEETS STABILITY CRITERION OF THE ADVECTION TERM
 (FOR PURE FINITE-DIFFERENCE OPTION, MIXELM=0) 
 = 0.5483    (WHEN MIN. R.F.=1)  AT K=   3, I=   2, J=  32


 TOTAL NUMBER OF POINT SOURCES/SINKS PRESENT IN THE FLOW MODEL =   240

 MAXIMUM STEPSIZE WHICH MEETS STABILITY CRITERION OF THE SINK & SOURCE TERM
 = 0.1000E+31(WHEN MIN. R.F.=1)  AT K=   0, I=   0, J=   0

 MAXIMUM STEPSIZE WHICH MEETS STABILITY CRITERION OF THE DISPERSION TERM
 = 0.3774E-01(WHEN MIN. R.F.=1)  AT K=   3, I=   2, J=  32


     1 CALLS TO GCG PACKAGE FOR TRANSPORT TIME STEP   1 IN FLOW TIME STEP  80 STRESS PERIOD   1
     5 TOTAL ITERATIONS
  MAXIMUM CONCENTRATION CHANGES FOR EACH ITERATION:
  MAX. CHANGE LAYER,ROW,COL MAX. CHANGE LAYER,ROW,COL MAX. CHANGE LAYER,ROW,COL MAX. CHANGE LAYER,ROW,COL MAX. CHANGE LAYER,ROW,COL
 ------------------------------------------------------------------------------------------------------------------------------------
   0.2096E-02 (  2,  3, 53)  0.1817E-03 (  3,  2, 33)  0.9995E-05 (  4,  2, 33)  0.1039E-05 (  3,  2, 33)  0.4100E-07 (  2,  2, 33)

 NO OUTPUT CONTROL FOR STRESS PERIOD    1   TIME STEP  80


                                          ================================================
                                                         FROM TIME =  0.80000     TO   0.81000    

 
 SOLVING FOR HEAD 
 FLOW MODEL IS TRANSIENT
 FLOW MODEL CONTAINS CONSTANT-HEAD CELLS


 MAXIMUM STEPSIZE DURING WHICH ANY PARTICLE CANNOT MOVE MORE THAN ONE CELL
 = 0.7993    (WHEN MIN. R.F.=1)  AT K=   3, I=   2, J=  33

 MAXIMUM STEPSIZE WHICH MEETS STABILITY CRITERION OF THE ADVECTION TERM
 (FOR PURE FINITE-DIFFERENCE OPTION, MIXELM=0) 
 = 0.5485    (WHEN MIN. R.F.=1)  AT K=   3, I=   2, J=  32


 TOTAL NUMBER OF POINT SOURCES/SINKS PRESENT IN THE FLOW MODEL =   240

 MAXIMUM STEPSIZE WHICH MEETS STABILITY CRITERION OF THE SINK & SOURCE TERM
 = 0.1000E+31(WHEN MIN. R.F.=1)  AT K=   0, I=   0, J=   0

 MAXIMUM STEPSIZE WHICH MEETS STABILITY CRITERION OF THE DISPERSION TERM
 = 0.3775E-01(WHEN MIN. R.F.=1)  AT K=   3, I=   2, J=  32


     1 CALLS TO GCG PACKAGE FOR TRANSPORT TIME STEP   1 IN FLOW TIME STEP  81 STRESS PERIOD   1
     5 TOTAL ITERATIONS
  MAXIMUM CONCENTRATION CHANGES FOR EACH ITERATION:
  MAX. CHANGE LAYER,ROW,COL MAX. CHANGE LAYER,ROW,COL MAX. CHANGE LAYER,ROW,COL MAX. CHANGE LAYER,ROW,COL MAX. CHANGE LAYER,ROW,COL
 ------------------------------------------------------------------------------------------------------------------------------------
   0.2083E-02 (  2,  3, 53)  0.1805E-03 (  3,  2, 33)  0.9929E-05 (  4,  2, 33)  0.1032E-05 (  3,  2, 33)  0.4077E-07 (  2,  2, 33)

 NO OUTPUT CONTROL FOR STRESS PERIOD    1   TIME STEP  81


                                          ================================================
                                                         FROM TIME =  0.81000     TO   0.82000    

 
 SOLVING FOR HEAD 
 FLOW MODEL IS TRANSIENT
 FLOW MODEL CONTAINS CONSTANT-HEAD CELLS


 MAXIMUM STEPSIZE DURING WHICH ANY PARTICLE CANNOT MOVE MORE THAN ONE CELL
 = 0.7995    (WHEN MIN. R.F.=1)  AT K=   3, I=   2, J=  33

 MAXIMUM STEPSIZE WHICH MEETS STABILITY CRITERION OF THE ADVECTION TERM
 (FOR PURE FINITE-DIFFERENCE OPTION, MIXELM=0) 
 = 0.5487    (WHEN MIN. R.F.=1)  AT K=   3, I=   2, J=  32


 TOTAL NUMBER OF POINT SOURCES/SINKS PRESENT IN THE FLOW MODEL =   240

 MAXIMUM STEPSIZE WHICH MEETS STABILITY CRITERION OF THE SINK & SOURCE TERM
 = 0.1000E+31(WHEN MIN. R.F.=1)  AT K=   0, I=   0, J=   0

 MAXIMUM STEPSIZE WHICH MEETS STABILITY CRITERION OF THE DISPERSION TERM
 = 0.3776E-01(WHEN MIN. R.F.=1)  AT K=   3, I=   2, J=  32


     1 CALLS TO GCG PACKAGE FOR TRANSPORT TIME STEP   1 IN FLOW TIME STEP  82 STRESS PERIOD   1
     5 TOTAL ITERATIONS
  MAXIMUM CONCENTRATION CHANGES FOR EACH ITERATION:
  MAX. CHANGE LAYER,ROW,COL MAX. CHANGE LAYER,ROW,COL MAX. CHANGE LAYER,ROW,COL MAX. CHANGE LAYER,ROW,COL MAX. CHANGE LAYER,ROW,COL
 ------------------------------------------------------------------------------------------------------------------------------------
   0.2069E-02 (  2,  3, 53)  0.1792E-03 (  3,  2, 33)  0.9865E-05 (  4,  2, 33)  0.1025E-05 (  3,  2, 33)  0.4053E-07 (  2,  2, 33)

 NO OUTPUT CONTROL FOR STRESS PERIOD    1   TIME STEP  82


                                          ================================================
                                                         FROM TIME =  0.82000     TO   0.83000    

 
 SOLVING FOR HEAD 
 FLOW MODEL IS TRANSIENT
 FLOW MODEL CONTAINS CONSTANT-HEAD CELLS


 MAXIMUM STEPSIZE DURING WHICH ANY PARTICLE CANNOT MOVE MORE THAN ONE CELL
 = 0.7998    (WHEN MIN. R.F.=1)  AT K=   3, I=   2, J=  33

 MAXIMUM STEPSIZE WHICH MEETS STABILITY CRITERION OF THE ADVECTION TERM
 (FOR PURE FINITE-DIFFERENCE OPTION, MIXELM=0) 
 = 0.5489    (WHEN MIN. R.F.=1)  AT K=   3, I=   2, J=  32


 TOTAL NUMBER OF POINT SOURCES/SINKS PRESENT IN THE FLOW MODEL =   240

 MAXIMUM STEPSIZE WHICH MEETS STABILITY CRITERION OF THE SINK & SOURCE TERM
 = 0.1000E+31(WHEN MIN. R.F.=1)  AT K=   0, I=   0, J=   0

 MAXIMUM STEPSIZE WHICH MEETS STABILITY CRITERION OF THE DISPERSION TERM
 = 0.3777E-01(WHEN MIN. R.F.=1)  AT K=   3, I=   2, J=  32


     1 CALLS TO GCG PACKAGE FOR TRANSPORT TIME STEP   1 IN FLOW TIME STEP  83 STRESS PERIOD   1
     5 TOTAL ITERATIONS
  MAXIMUM CONCENTRATION CHANGES FOR EACH ITERATION:
  MAX. CHANGE LAYER,ROW,COL MAX. CHANGE LAYER,ROW,COL MAX. CHANGE LAYER,ROW,COL MAX. CHANGE LAYER,ROW,COL MAX. CHANGE LAYER,ROW,COL
 ------------------------------------------------------------------------------------------------------------------------------------
   0.2056E-02 (  2,  3, 53)  0.1780E-03 (  3,  2, 33)  0.9801E-05 (  4,  2, 33)  0.1019E-05 (  3,  2, 33)  0.4030E-07 (  2,  2, 33)

 NO OUTPUT CONTROL FOR STRESS PERIOD    1   TIME STEP  83


                                          ================================================
                                                         FROM TIME =  0.83000     TO   0.84000    

 
 SOLVING FOR HEAD 
 FLOW MODEL IS TRANSIENT
 FLOW MODEL CONTAINS CONSTANT-HEAD CELLS


 MAXIMUM STEPSIZE DURING WHICH ANY PARTICLE CANNOT MOVE MORE THAN ONE CELL
 = 0.8000    (WHEN MIN. R.F.=1)  AT K=   3, I=   2, J=  33

 MAXIMUM STEPSIZE WHICH MEETS STABILITY CRITERION OF THE ADVECTION TERM
 (FOR PURE FINITE-DIFFERENCE OPTION, MIXELM=0) 
 = 0.5490    (WHEN MIN. R.F.=1)  AT K=   3, I=   2, J=  32


 TOTAL NUMBER OF POINT SOURCES/SINKS PRESENT IN THE FLOW MODEL =   240

 MAXIMUM STEPSIZE WHICH MEETS STABILITY CRITERION OF THE SINK & SOURCE TERM
 = 0.1000E+31(WHEN MIN. R.F.=1)  AT K=   0, I=   0, J=   0

 MAXIMUM STEPSIZE WHICH MEETS STABILITY CRITERION OF THE DISPERSION TERM
 = 0.3778E-01(WHEN MIN. R.F.=1)  AT K=   3, I=   2, J=  32


     1 CALLS TO GCG PACKAGE FOR TRANSPORT TIME STEP   1 IN FLOW TIME STEP  84 STRESS PERIOD   1
     5 TOTAL ITERATIONS
  MAXIMUM CONCENTRATION CHANGES FOR EACH ITERATION:
  MAX. CHANGE LAYER,ROW,COL MAX. CHANGE LAYER,ROW,COL MAX. CHANGE LAYER,ROW,COL MAX. CHANGE LAYER,ROW,COL MAX. CHANGE LAYER,ROW,COL
 ------------------------------------------------------------------------------------------------------------------------------------
   0.2043E-02 (  2,  3, 53)  0.1768E-03 (  3,  2, 33)  0.9739E-05 (  4,  2, 33)  0.1012E-05 (  3,  2, 33)  0.4008E-07 (  2,  2, 33)

 NO OUTPUT CONTROL FOR STRESS PERIOD    1   TIME STEP  84


                                          ================================================
                                                         FROM TIME =  0.84000     TO   0.85000    

 
 SOLVING FOR HEAD 
 FLOW MODEL IS TRANSIENT
 FLOW MODEL CONTAINS CONSTANT-HEAD CELLS


 MAXIMUM STEPSIZE DURING WHICH ANY PARTICLE CANNOT MOVE MORE THAN ONE CELL
 = 0.8003    (WHEN MIN. R.F.=1)  AT K=   3, I=   2, J=  33

 MAXIMUM STEPSIZE WHICH MEETS STABILITY CRITERION OF THE ADVECTION TERM
 (FOR PURE FINITE-DIFFERENCE OPTION, MIXELM=0) 
 = 0.5492    (WHEN MIN. R.F.=1)  AT K=   3, I=   2, J=  32


 TOTAL NUMBER OF POINT SOURCES/SINKS PRESENT IN THE FLOW MODEL =   240

 MAXIMUM STEPSIZE WHICH MEETS STABILITY CRITERION OF THE SINK & SOURCE TERM
 = 0.1000E+31(WHEN MIN. R.F.=1)  AT K=   0, I=   0, J=   0

 MAXIMUM STEPSIZE WHICH MEETS STABILITY CRITERION OF THE DISPERSION TERM
 = 0.3780E-01(WHEN MIN. R.F.=1)  AT K=   3, I=   2, J=  32


     1 CALLS TO GCG PACKAGE FOR TRANSPORT TIME STEP   1 IN FLOW TIME STEP  85 STRESS PERIOD   1
     5 TOTAL ITERATIONS
  MAXIMUM CONCENTRATION CHANGES FOR EACH ITERATION:
  MAX. CHANGE LAYER,ROW,COL MAX. CHANGE LAYER,ROW,COL MAX. CHANGE LAYER,ROW,COL MAX. CHANGE LAYER,ROW,COL MAX. CHANGE LAYER,ROW,COL
 ------------------------------------------------------------------------------------------------------------------------------------
   0.2030E-02 (  2,  3, 53)  0.1757E-03 (  3,  2, 33)  0.9677E-05 (  4,  2, 33)  0.1006E-05 (  3,  2, 33)  0.3986E-07 (  2,  2, 33)

 NO OUTPUT CONTROL FOR STRESS PERIOD    1   TIME STEP  85


                                          ================================================
                                                         FROM TIME =  0.85000     TO   0.86000    

 
 SOLVING FOR HEAD 
 FLOW MODEL IS TRANSIENT
 FLOW MODEL CONTAINS CONSTANT-HEAD CELLS


 MAXIMUM STEPSIZE DURING WHICH ANY PARTICLE CANNOT MOVE MORE THAN ONE CELL
 = 0.8005    (WHEN MIN. R.F.=1)  AT K=   3, I=   2, J=  33

 MAXIMUM STEPSIZE WHICH MEETS STABILITY CRITERION OF THE ADVECTION TERM
 (FOR PURE FINITE-DIFFERENCE OPTION, MIXELM=0) 
 = 0.5494    (WHEN MIN. R.F.=1)  AT K=   3, I=   2, J=  32


 TOTAL NUMBER OF POINT SOURCES/SINKS PRESENT IN THE FLOW MODEL =   240

 MAXIMUM STEPSIZE WHICH MEETS STABILITY CRITERION OF THE SINK & SOURCE TERM
 = 0.1000E+31(WHEN MIN. R.F.=1)  AT K=   0, I=   0, J=   0

 MAXIMUM STEPSIZE WHICH MEETS STABILITY CRITERION OF THE DISPERSION TERM
 = 0.3781E-01(WHEN MIN. R.F.=1)  AT K=   3, I=   2, J=  32


     1 CALLS TO GCG PACKAGE FOR TRANSPORT TIME STEP   1 IN FLOW TIME STEP  86 STRESS PERIOD   1
     5 TOTAL ITERATIONS
  MAXIMUM CONCENTRATION CHANGES FOR EACH ITERATION:
  MAX. CHANGE LAYER,ROW,COL MAX. CHANGE LAYER,ROW,COL MAX. CHANGE LAYER,ROW,COL MAX. CHANGE LAYER,ROW,COL MAX. CHANGE LAYER,ROW,COL
 ------------------------------------------------------------------------------------------------------------------------------------
   0.2017E-02 (  2,  3, 53)  0.1745E-03 (  3,  2, 33)  0.9616E-05 (  4,  2, 33)  0.9993E-06 (  3,  2, 33)  0.3964E-07 (  2,  2, 33)

 NO OUTPUT CONTROL FOR STRESS PERIOD    1   TIME STEP  86


                                          ================================================
                                                         FROM TIME =  0.86000     TO   0.87000    

 
 SOLVING FOR HEAD 
 FLOW MODEL IS TRANSIENT
 FLOW MODEL CONTAINS CONSTANT-HEAD CELLS


 MAXIMUM STEPSIZE DURING WHICH ANY PARTICLE CANNOT MOVE MORE THAN ONE CELL
 = 0.8008    (WHEN MIN. R.F.=1)  AT K=   3, I=   2, J=  33

 MAXIMUM STEPSIZE WHICH MEETS STABILITY CRITERION OF THE ADVECTION TERM
 (FOR PURE FINITE-DIFFERENCE OPTION, MIXELM=0) 
 = 0.5495    (WHEN MIN. R.F.=1)  AT K=   3, I=   2, J=  32


 TOTAL NUMBER OF POINT SOURCES/SINKS PRESENT IN THE FLOW MODEL =   240

 MAXIMUM STEPSIZE WHICH MEETS STABILITY CRITERION OF THE SINK & SOURCE TERM
 = 0.1000E+31(WHEN MIN. R.F.=1)  AT K=   0, I=   0, J=   0

 MAXIMUM STEPSIZE WHICH MEETS STABILITY CRITERION OF THE DISPERSION TERM
 = 0.3782E-01(WHEN MIN. R.F.=1)  AT K=   3, I=   2, J=  32


     1 CALLS TO GCG PACKAGE FOR TRANSPORT TIME STEP   1 IN FLOW TIME STEP  87 STRESS PERIOD   1
     5 TOTAL ITERATIONS
  MAXIMUM CONCENTRATION CHANGES FOR EACH ITERATION:
  MAX. CHANGE LAYER,ROW,COL MAX. CHANGE LAYER,ROW,COL MAX. CHANGE LAYER,ROW,COL MAX. CHANGE LAYER,ROW,COL MAX. CHANGE LAYER,ROW,COL
 ------------------------------------------------------------------------------------------------------------------------------------
   0.2004E-02 (  2,  3, 53)  0.1734E-03 (  3,  2, 33)  0.9556E-05 (  4,  2, 33)  0.9931E-06 (  3,  2, 33)  0.3942E-07 (  2,  2, 33)

 NO OUTPUT CONTROL FOR STRESS PERIOD    1   TIME STEP  87


                                          ================================================
                                                         FROM TIME =  0.87000     TO   0.88000    

 
 SOLVING FOR HEAD 
 FLOW MODEL IS TRANSIENT
 FLOW MODEL CONTAINS CONSTANT-HEAD CELLS


 MAXIMUM STEPSIZE DURING WHICH ANY PARTICLE CANNOT MOVE MORE THAN ONE CELL
 = 0.8010    (WHEN MIN. R.F.=1)  AT K=   3, I=   2, J=  33

 MAXIMUM STEPSIZE WHICH MEETS STABILITY CRITERION OF THE ADVECTION TERM
 (FOR PURE FINITE-DIFFERENCE OPTION, MIXELM=0) 
 = 0.5497    (WHEN MIN. R.F.=1)  AT K=   3, I=   2, J=  32


 TOTAL NUMBER OF POINT SOURCES/SINKS PRESENT IN THE FLOW MODEL =   240

 MAXIMUM STEPSIZE WHICH MEETS STABILITY CRITERION OF THE SINK & SOURCE TERM
 = 0.1000E+31(WHEN MIN. R.F.=1)  AT K=   0, I=   0, J=   0

 MAXIMUM STEPSIZE WHICH MEETS STABILITY CRITERION OF THE DISPERSION TERM
 = 0.3783E-01(WHEN MIN. R.F.=1)  AT K=   3, I=   2, J=  32


     1 CALLS TO GCG PACKAGE FOR TRANSPORT TIME STEP   1 IN FLOW TIME STEP  88 STRESS PERIOD   1
     5 TOTAL ITERATIONS
  MAXIMUM CONCENTRATION CHANGES FOR EACH ITERATION:
  MAX. CHANGE LAYER,ROW,COL MAX. CHANGE LAYER,ROW,COL MAX. CHANGE LAYER,ROW,COL MAX. CHANGE LAYER,ROW,COL MAX. CHANGE LAYER,ROW,COL
 ------------------------------------------------------------------------------------------------------------------------------------
   0.1991E-02 (  2,  3, 53)  0.1723E-03 (  3,  2, 33)  0.9497E-05 (  4,  2, 33)  0.9869E-06 (  3,  2, 33)  0.3921E-07 (  2,  2, 33)

 NO OUTPUT CONTROL FOR STRESS PERIOD    1   TIME STEP  88


                                          ================================================
                                                         FROM TIME =  0.88000     TO   0.89000    

 
 SOLVING FOR HEAD 
 FLOW MODEL IS TRANSIENT
 FLOW MODEL CONTAINS CONSTANT-HEAD CELLS


 MAXIMUM STEPSIZE DURING WHICH ANY PARTICLE CANNOT MOVE MORE THAN ONE CELL
 = 0.8012    (WHEN MIN. R.F.=1)  AT K=   3, I=   2, J=  33

 MAXIMUM STEPSIZE WHICH MEETS STABILITY CRITERION OF THE ADVECTION TERM
 (FOR PURE FINITE-DIFFERENCE OPTION, MIXELM=0) 
 = 0.5499    (WHEN MIN. R.F.=1)  AT K=   3, I=   2, J=  32


 TOTAL NUMBER OF POINT SOURCES/SINKS PRESENT IN THE FLOW MODEL =   240

 MAXIMUM STEPSIZE WHICH MEETS STABILITY CRITERION OF THE SINK & SOURCE TERM
 = 0.1000E+31(WHEN MIN. R.F.=1)  AT K=   0, I=   0, J=   0

 MAXIMUM STEPSIZE WHICH MEETS STABILITY CRITERION OF THE DISPERSION TERM
 = 0.3784E-01(WHEN MIN. R.F.=1)  AT K=   3, I=   2, J=  32


     1 CALLS TO GCG PACKAGE FOR TRANSPORT TIME STEP   1 IN FLOW TIME STEP  89 STRESS PERIOD   1
     5 TOTAL ITERATIONS
  MAXIMUM CONCENTRATION CHANGES FOR EACH ITERATION:
  MAX. CHANGE LAYER,ROW,COL MAX. CHANGE LAYER,ROW,COL MAX. CHANGE LAYER,ROW,COL MAX. CHANGE LAYER,ROW,COL MAX. CHANGE LAYER,ROW,COL
 ------------------------------------------------------------------------------------------------------------------------------------
   0.1978E-02 (  2,  3, 53)  0.1712E-03 (  3,  2, 33)  0.9439E-05 (  4,  2, 33)  0.9808E-06 (  3,  2, 33)  0.3899E-07 (  2,  2, 33)

 NO OUTPUT CONTROL FOR STRESS PERIOD    1   TIME STEP  89


                                          ================================================
                                                         FROM TIME =  0.89000     TO   0.90000    

 
 SOLVING FOR HEAD 
 FLOW MODEL IS TRANSIENT
 FLOW MODEL CONTAINS CONSTANT-HEAD CELLS


 MAXIMUM STEPSIZE DURING WHICH ANY PARTICLE CANNOT MOVE MORE THAN ONE CELL
 = 0.8015    (WHEN MIN. R.F.=1)  AT K=   3, I=   2, J=  33

 MAXIMUM STEPSIZE WHICH MEETS STABILITY CRITERION OF THE ADVECTION TERM
 (FOR PURE FINITE-DIFFERENCE OPTION, MIXELM=0) 
 = 0.5500    (WHEN MIN. R.F.=1)  AT K=   3, I=   2, J=  32


 TOTAL NUMBER OF POINT SOURCES/SINKS PRESENT IN THE FLOW MODEL =   240

 MAXIMUM STEPSIZE WHICH MEETS STABILITY CRITERION OF THE SINK & SOURCE TERM
 = 0.1000E+31(WHEN MIN. R.F.=1)  AT K=   0, I=   0, J=   0

 MAXIMUM STEPSIZE WHICH MEETS STABILITY CRITERION OF THE DISPERSION TERM
 = 0.3785E-01(WHEN MIN. R.F.=1)  AT K=   3, I=   2, J=  32


     1 CALLS TO GCG PACKAGE FOR TRANSPORT TIME STEP   1 IN FLOW TIME STEP  90 STRESS PERIOD   1
     5 TOTAL ITERATIONS
  MAXIMUM CONCENTRATION CHANGES FOR EACH ITERATION:
  MAX. CHANGE LAYER,ROW,COL MAX. CHANGE LAYER,ROW,COL MAX. CHANGE LAYER,ROW,COL MAX. CHANGE LAYER,ROW,COL MAX. CHANGE LAYER,ROW,COL
 ------------------------------------------------------------------------------------------------------------------------------------
   0.1965E-02 (  2,  3, 53)  0.1701E-03 (  3,  2, 33)  0.9382E-05 (  4,  2, 33)  0.9748E-06 (  3,  2, 33)  0.3878E-07 (  2,  2, 33)

 NO OUTPUT CONTROL FOR STRESS PERIOD    1   TIME STEP  90


                                          ================================================
                                                         FROM TIME =  0.90000     TO   0.91000    

 
 SOLVING FOR HEAD 
 FLOW MODEL IS TRANSIENT
 FLOW MODEL CONTAINS CONSTANT-HEAD CELLS


 MAXIMUM STEPSIZE DURING WHICH ANY PARTICLE CANNOT MOVE MORE THAN ONE CELL
 = 0.8017    (WHEN MIN. R.F.=1)  AT K=   3, I=   2, J=  33

 MAXIMUM STEPSIZE WHICH MEETS STABILITY CRITERION OF THE ADVECTION TERM
 (FOR PURE FINITE-DIFFERENCE OPTION, MIXELM=0) 
 = 0.5502    (WHEN MIN. R.F.=1)  AT K=   3, I=   2, J=  32


 TOTAL NUMBER OF POINT SOURCES/SINKS PRESENT IN THE FLOW MODEL =   240

 MAXIMUM STEPSIZE WHICH MEETS STABILITY CRITERION OF THE SINK & SOURCE TERM
 = 0.1000E+31(WHEN MIN. R.F.=1)  AT K=   0, I=   0, J=   0

 MAXIMUM STEPSIZE WHICH MEETS STABILITY CRITERION OF THE DISPERSION TERM
 = 0.3786E-01(WHEN MIN. R.F.=1)  AT K=   3, I=   2, J=  32


     1 CALLS TO GCG PACKAGE FOR TRANSPORT TIME STEP   1 IN FLOW TIME STEP  91 STRESS PERIOD   1
     5 TOTAL ITERATIONS
  MAXIMUM CONCENTRATION CHANGES FOR EACH ITERATION:
  MAX. CHANGE LAYER,ROW,COL MAX. CHANGE LAYER,ROW,COL MAX. CHANGE LAYER,ROW,COL MAX. CHANGE LAYER,ROW,COL MAX. CHANGE LAYER,ROW,COL
 ------------------------------------------------------------------------------------------------------------------------------------
   0.1952E-02 (  2,  3, 53)  0.1690E-03 (  3,  2, 33)  0.9325E-05 (  4,  2, 33)  0.9689E-06 (  3,  2, 33)  0.3858E-07 (  2,  2, 33)

 NO OUTPUT CONTROL FOR STRESS PERIOD    1   TIME STEP  91


                                          ================================================
                                                         FROM TIME =  0.91000     TO   0.92000    

 
 SOLVING FOR HEAD 
 FLOW MODEL IS TRANSIENT
 FLOW MODEL CONTAINS CONSTANT-HEAD CELLS


 MAXIMUM STEPSIZE DURING WHICH ANY PARTICLE CANNOT MOVE MORE THAN ONE CELL
 = 0.8019    (WHEN MIN. R.F.=1)  AT K=   3, I=   2, J=  33

 MAXIMUM STEPSIZE WHICH MEETS STABILITY CRITERION OF THE ADVECTION TERM
 (FOR PURE FINITE-DIFFERENCE OPTION, MIXELM=0) 
 = 0.5503    (WHEN MIN. R.F.=1)  AT K=   3, I=   2, J=  32


 TOTAL NUMBER OF POINT SOURCES/SINKS PRESENT IN THE FLOW MODEL =   240

 MAXIMUM STEPSIZE WHICH MEETS STABILITY CRITERION OF THE SINK & SOURCE TERM
 = 0.1000E+31(WHEN MIN. R.F.=1)  AT K=   0, I=   0, J=   0

 MAXIMUM STEPSIZE WHICH MEETS STABILITY CRITERION OF THE DISPERSION TERM
 = 0.3787E-01(WHEN MIN. R.F.=1)  AT K=   3, I=   2, J=  32


     1 CALLS TO GCG PACKAGE FOR TRANSPORT TIME STEP   1 IN FLOW TIME STEP  92 STRESS PERIOD   1
     5 TOTAL ITERATIONS
  MAXIMUM CONCENTRATION CHANGES FOR EACH ITERATION:
  MAX. CHANGE LAYER,ROW,COL MAX. CHANGE LAYER,ROW,COL MAX. CHANGE LAYER,ROW,COL MAX. CHANGE LAYER,ROW,COL MAX. CHANGE LAYER,ROW,COL
 ------------------------------------------------------------------------------------------------------------------------------------
   0.1940E-02 (  2,  3, 54)  0.1680E-03 (  3,  2, 33)  0.9270E-05 (  4,  2, 33)  0.9631E-06 (  3,  2, 33)  0.3838E-07 (  2,  2, 33)

 NO OUTPUT CONTROL FOR STRESS PERIOD    1   TIME STEP  92


                                          ================================================
                                                         FROM TIME =  0.92000     TO   0.93000    

 
 SOLVING FOR HEAD 
 FLOW MODEL IS TRANSIENT
 FLOW MODEL CONTAINS CONSTANT-HEAD CELLS


 MAXIMUM STEPSIZE DURING WHICH ANY PARTICLE CANNOT MOVE MORE THAN ONE CELL
 = 0.8022    (WHEN MIN. R.F.=1)  AT K=   3, I=   2, J=  33

 MAXIMUM STEPSIZE WHICH MEETS STABILITY CRITERION OF THE ADVECTION TERM
 (FOR PURE FINITE-DIFFERENCE OPTION, MIXELM=0) 
 = 0.5505    (WHEN MIN. R.F.=1)  AT K=   3, I=   2, J=  32


 TOTAL NUMBER OF POINT SOURCES/SINKS PRESENT IN THE FLOW MODEL =   240

 MAXIMUM STEPSIZE WHICH MEETS STABILITY CRITERION OF THE SINK & SOURCE TERM
 = 0.1000E+31(WHEN MIN. R.F.=1)  AT K=   0, I=   0, J=   0

 MAXIMUM STEPSIZE WHICH MEETS STABILITY CRITERION OF THE DISPERSION TERM
 = 0.3788E-01(WHEN MIN. R.F.=1)  AT K=   3, I=   2, J=  32


     1 CALLS TO GCG PACKAGE FOR TRANSPORT TIME STEP   1 IN FLOW TIME STEP  93 STRESS PERIOD   1
     5 TOTAL ITERATIONS
  MAXIMUM CONCENTRATION CHANGES FOR EACH ITERATION:
  MAX. CHANGE LAYER,ROW,COL MAX. CHANGE LAYER,ROW,COL MAX. CHANGE LAYER,ROW,COL MAX. CHANGE LAYER,ROW,COL MAX. CHANGE LAYER,ROW,COL
 ------------------------------------------------------------------------------------------------------------------------------------
   0.1928E-02 (  2,  3, 54)  0.1669E-03 (  3,  2, 33)  0.9215E-05 (  4,  2, 33)  0.9573E-06 (  3,  2, 33)  0.3817E-07 (  2,  2, 33)

 NO OUTPUT CONTROL FOR STRESS PERIOD    1   TIME STEP  93


                                          ================================================
                                                         FROM TIME =  0.93000     TO   0.94000    

 
 SOLVING FOR HEAD 
 FLOW MODEL IS TRANSIENT
 FLOW MODEL CONTAINS CONSTANT-HEAD CELLS


 MAXIMUM STEPSIZE DURING WHICH ANY PARTICLE CANNOT MOVE MORE THAN ONE CELL
 = 0.8024    (WHEN MIN. R.F.=1)  AT K=   3, I=   2, J=  33

 MAXIMUM STEPSIZE WHICH MEETS STABILITY CRITERION OF THE ADVECTION TERM
 (FOR PURE FINITE-DIFFERENCE OPTION, MIXELM=0) 
 = 0.5507    (WHEN MIN. R.F.=1)  AT K=   3, I=   2, J=  32


 TOTAL NUMBER OF POINT SOURCES/SINKS PRESENT IN THE FLOW MODEL =   240

 MAXIMUM STEPSIZE WHICH MEETS STABILITY CRITERION OF THE SINK & SOURCE TERM
 = 0.1000E+31(WHEN MIN. R.F.=1)  AT K=   0, I=   0, J=   0

 MAXIMUM STEPSIZE WHICH MEETS STABILITY CRITERION OF THE DISPERSION TERM
 = 0.3790E-01(WHEN MIN. R.F.=1)  AT K=   3, I=   2, J=  32


     1 CALLS TO GCG PACKAGE FOR TRANSPORT TIME STEP   1 IN FLOW TIME STEP  94 STRESS PERIOD   1
     5 TOTAL ITERATIONS
  MAXIMUM CONCENTRATION CHANGES FOR EACH ITERATION:
  MAX. CHANGE LAYER,ROW,COL MAX. CHANGE LAYER,ROW,COL MAX. CHANGE LAYER,ROW,COL MAX. CHANGE LAYER,ROW,COL MAX. CHANGE LAYER,ROW,COL
 ------------------------------------------------------------------------------------------------------------------------------------
   0.1917E-02 (  2,  3, 54)  0.1659E-03 (  3,  2, 33)  0.9161E-05 (  4,  2, 33)  0.9516E-06 (  3,  2, 33)  0.3798E-07 (  2,  2, 33)

 NO OUTPUT CONTROL FOR STRESS PERIOD    1   TIME STEP  94


                                          ================================================
                                                         FROM TIME =  0.94000     TO   0.95000    

 
 SOLVING FOR HEAD 
 FLOW MODEL IS TRANSIENT
 FLOW MODEL CONTAINS CONSTANT-HEAD CELLS


 MAXIMUM STEPSIZE DURING WHICH ANY PARTICLE CANNOT MOVE MORE THAN ONE CELL
 = 0.8027    (WHEN MIN. R.F.=1)  AT K=   3, I=   2, J=  33

 MAXIMUM STEPSIZE WHICH MEETS STABILITY CRITERION OF THE ADVECTION TERM
 (FOR PURE FINITE-DIFFERENCE OPTION, MIXELM=0) 
 = 0.5508    (WHEN MIN. R.F.=1)  AT K=   3, I=   2, J=  32


 TOTAL NUMBER OF POINT SOURCES/SINKS PRESENT IN THE FLOW MODEL =   240

 MAXIMUM STEPSIZE WHICH MEETS STABILITY CRITERION OF THE SINK & SOURCE TERM
 = 0.1000E+31(WHEN MIN. R.F.=1)  AT K=   0, I=   0, J=   0

 MAXIMUM STEPSIZE WHICH MEETS STABILITY CRITERION OF THE DISPERSION TERM
 = 0.3791E-01(WHEN MIN. R.F.=1)  AT K=   3, I=   2, J=  32


     1 CALLS TO GCG PACKAGE FOR TRANSPORT TIME STEP   1 IN FLOW TIME STEP  95 STRESS PERIOD   1
     5 TOTAL ITERATIONS
  MAXIMUM CONCENTRATION CHANGES FOR EACH ITERATION:
  MAX. CHANGE LAYER,ROW,COL MAX. CHANGE LAYER,ROW,COL MAX. CHANGE LAYER,ROW,COL MAX. CHANGE LAYER,ROW,COL MAX. CHANGE LAYER,ROW,COL
 ------------------------------------------------------------------------------------------------------------------------------------
   0.1905E-02 (  2,  3, 54)  0.1649E-03 (  3,  2, 33)  0.9107E-05 (  4,  2, 33)  0.9460E-06 (  3,  2, 33)  0.3778E-07 (  2,  2, 33)

 NO OUTPUT CONTROL FOR STRESS PERIOD    1   TIME STEP  95


                                          ================================================
                                                         FROM TIME =  0.95000     TO   0.96000    

 
 SOLVING FOR HEAD 
 FLOW MODEL IS TRANSIENT
 FLOW MODEL CONTAINS CONSTANT-HEAD CELLS


 MAXIMUM STEPSIZE DURING WHICH ANY PARTICLE CANNOT MOVE MORE THAN ONE CELL
 = 0.8029    (WHEN MIN. R.F.=1)  AT K=   3, I=   2, J=  33

 MAXIMUM STEPSIZE WHICH MEETS STABILITY CRITERION OF THE ADVECTION TERM
 (FOR PURE FINITE-DIFFERENCE OPTION, MIXELM=0) 
 = 0.5510    (WHEN MIN. R.F.=1)  AT K=   3, I=   2, J=  32


 TOTAL NUMBER OF POINT SOURCES/SINKS PRESENT IN THE FLOW MODEL =   240

 MAXIMUM STEPSIZE WHICH MEETS STABILITY CRITERION OF THE SINK & SOURCE TERM
 = 0.1000E+31(WHEN MIN. R.F.=1)  AT K=   0, I=   0, J=   0

 MAXIMUM STEPSIZE WHICH MEETS STABILITY CRITERION OF THE DISPERSION TERM
 = 0.3792E-01(WHEN MIN. R.F.=1)  AT K=   3, I=   2, J=  32


     1 CALLS TO GCG PACKAGE FOR TRANSPORT TIME STEP   1 IN FLOW TIME STEP  96 STRESS PERIOD   1
     5 TOTAL ITERATIONS
  MAXIMUM CONCENTRATION CHANGES FOR EACH ITERATION:
  MAX. CHANGE LAYER,ROW,COL MAX. CHANGE LAYER,ROW,COL MAX. CHANGE LAYER,ROW,COL MAX. CHANGE LAYER,ROW,COL MAX. CHANGE LAYER,ROW,COL
 ------------------------------------------------------------------------------------------------------------------------------------
   0.1894E-02 (  2,  3, 54)  0.1639E-03 (  3,  2, 33)  0.9055E-05 (  4,  2, 33)  0.9405E-06 (  3,  2, 33)  0.3759E-07 (  2,  2, 33)

 NO OUTPUT CONTROL FOR STRESS PERIOD    1   TIME STEP  96


                                          ================================================
                                                         FROM TIME =  0.96000     TO   0.97000    

 
 SOLVING FOR HEAD 
 FLOW MODEL IS TRANSIENT
 FLOW MODEL CONTAINS CONSTANT-HEAD CELLS


 MAXIMUM STEPSIZE DURING WHICH ANY PARTICLE CANNOT MOVE MORE THAN ONE CELL
 = 0.8031    (WHEN MIN. R.F.=1)  AT K=   3, I=   2, J=  33

 MAXIMUM STEPSIZE WHICH MEETS STABILITY CRITERION OF THE ADVECTION TERM
 (FOR PURE FINITE-DIFFERENCE OPTION, MIXELM=0) 
 = 0.5511    (WHEN MIN. R.F.=1)  AT K=   3, I=   2, J=  32


 TOTAL NUMBER OF POINT SOURCES/SINKS PRESENT IN THE FLOW MODEL =   240

 MAXIMUM STEPSIZE WHICH MEETS STABILITY CRITERION OF THE SINK & SOURCE TERM
 = 0.1000E+31(WHEN MIN. R.F.=1)  AT K=   0, I=   0, J=   0

 MAXIMUM STEPSIZE WHICH MEETS STABILITY CRITERION OF THE DISPERSION TERM
 = 0.3793E-01(WHEN MIN. R.F.=1)  AT K=   3, I=   2, J=  32


     1 CALLS TO GCG PACKAGE FOR TRANSPORT TIME STEP   1 IN FLOW TIME STEP  97 STRESS PERIOD   1
     5 TOTAL ITERATIONS
  MAXIMUM CONCENTRATION CHANGES FOR EACH ITERATION:
  MAX. CHANGE LAYER,ROW,COL MAX. CHANGE LAYER,ROW,COL MAX. CHANGE LAYER,ROW,COL MAX. CHANGE LAYER,ROW,COL MAX. CHANGE LAYER,ROW,COL
 ------------------------------------------------------------------------------------------------------------------------------------
   0.1882E-02 (  2,  3, 54)  0.1629E-03 (  3,  2, 33)  0.9003E-05 (  4,  2, 33)  0.9350E-06 (  3,  2, 33)  0.3739E-07 (  2,  2, 33)

 NO OUTPUT CONTROL FOR STRESS PERIOD    1   TIME STEP  97


                                          ================================================
                                                         FROM TIME =  0.97000     TO   0.98000    

 
 SOLVING FOR HEAD 
 FLOW MODEL IS TRANSIENT
 FLOW MODEL CONTAINS CONSTANT-HEAD CELLS


 MAXIMUM STEPSIZE DURING WHICH ANY PARTICLE CANNOT MOVE MORE THAN ONE CELL
 = 0.8033    (WHEN MIN. R.F.=1)  AT K=   3, I=   2, J=  33

 MAXIMUM STEPSIZE WHICH MEETS STABILITY CRITERION OF THE ADVECTION TERM
 (FOR PURE FINITE-DIFFERENCE OPTION, MIXELM=0) 
 = 0.5513    (WHEN MIN. R.F.=1)  AT K=   3, I=   2, J=  32


 TOTAL NUMBER OF POINT SOURCES/SINKS PRESENT IN THE FLOW MODEL =   240

 MAXIMUM STEPSIZE WHICH MEETS STABILITY CRITERION OF THE SINK & SOURCE TERM
 = 0.1000E+31(WHEN MIN. R.F.=1)  AT K=   0, I=   0, J=   0

 MAXIMUM STEPSIZE WHICH MEETS STABILITY CRITERION OF THE DISPERSION TERM
 = 0.3794E-01(WHEN MIN. R.F.=1)  AT K=   3, I=   2, J=  32


     1 CALLS TO GCG PACKAGE FOR TRANSPORT TIME STEP   1 IN FLOW TIME STEP  98 STRESS PERIOD   1
     5 TOTAL ITERATIONS
  MAXIMUM CONCENTRATION CHANGES FOR EACH ITERATION:
  MAX. CHANGE LAYER,ROW,COL MAX. CHANGE LAYER,ROW,COL MAX. CHANGE LAYER,ROW,COL MAX. CHANGE LAYER,ROW,COL MAX. CHANGE LAYER,ROW,COL
 ------------------------------------------------------------------------------------------------------------------------------------
   0.1871E-02 (  2,  3, 54)  0.1620E-03 (  3,  2, 33)  0.8951E-05 (  4,  2, 33)  0.9296E-06 (  3,  2, 33)  0.3720E-07 (  2,  2, 33)

 NO OUTPUT CONTROL FOR STRESS PERIOD    1   TIME STEP  98


                                          ================================================
                                                         FROM TIME =  0.98000     TO   0.99000    

 
 SOLVING FOR HEAD 
 FLOW MODEL IS TRANSIENT
 FLOW MODEL CONTAINS CONSTANT-HEAD CELLS


 MAXIMUM STEPSIZE DURING WHICH ANY PARTICLE CANNOT MOVE MORE THAN ONE CELL
 = 0.8036    (WHEN MIN. R.F.=1)  AT K=   3, I=   2, J=  33

 MAXIMUM STEPSIZE WHICH MEETS STABILITY CRITERION OF THE ADVECTION TERM
 (FOR PURE FINITE-DIFFERENCE OPTION, MIXELM=0) 
 = 0.5514    (WHEN MIN. R.F.=1)  AT K=   3, I=   2, J=  32


 TOTAL NUMBER OF POINT SOURCES/SINKS PRESENT IN THE FLOW MODEL =   240

 MAXIMUM STEPSIZE WHICH MEETS STABILITY CRITERION OF THE SINK & SOURCE TERM
 = 0.1000E+31(WHEN MIN. R.F.=1)  AT K=   0, I=   0, J=   0

 MAXIMUM STEPSIZE WHICH MEETS STABILITY CRITERION OF THE DISPERSION TERM
 = 0.3795E-01(WHEN MIN. R.F.=1)  AT K=   3, I=   2, J=  32


     1 CALLS TO GCG PACKAGE FOR TRANSPORT TIME STEP   1 IN FLOW TIME STEP  99 STRESS PERIOD   1
     5 TOTAL ITERATIONS
  MAXIMUM CONCENTRATION CHANGES FOR EACH ITERATION:
  MAX. CHANGE LAYER,ROW,COL MAX. CHANGE LAYER,ROW,COL MAX. CHANGE LAYER,ROW,COL MAX. CHANGE LAYER,ROW,COL MAX. CHANGE LAYER,ROW,COL
 ------------------------------------------------------------------------------------------------------------------------------------
   0.1859E-02 (  2,  3, 54)  0.1610E-03 (  3,  2, 33)  0.8901E-05 (  4,  2, 33)  0.9242E-06 (  3,  2, 33)  0.3702E-07 (  2,  2, 33)

 NO OUTPUT CONTROL FOR STRESS PERIOD    1   TIME STEP  99


                                          ================================================
                                                         FROM TIME =  0.99000     TO   1.00000    

 
 SOLVING FOR HEAD 
 FLOW MODEL IS TRANSIENT
 FLOW MODEL CONTAINS CONSTANT-HEAD CELLS


 MAXIMUM STEPSIZE DURING WHICH ANY PARTICLE CANNOT MOVE MORE THAN ONE CELL
 = 0.8038    (WHEN MIN. R.F.=1)  AT K=   3, I=   2, J=  33

 MAXIMUM STEPSIZE WHICH MEETS STABILITY CRITERION OF THE ADVECTION TERM
 (FOR PURE FINITE-DIFFERENCE OPTION, MIXELM=0) 
 = 0.5516    (WHEN MIN. R.F.=1)  AT K=   3, I=   2, J=  32


 TOTAL NUMBER OF POINT SOURCES/SINKS PRESENT IN THE FLOW MODEL =   240

 MAXIMUM STEPSIZE WHICH MEETS STABILITY CRITERION OF THE SINK & SOURCE TERM
 = 0.1000E+31(WHEN MIN. R.F.=1)  AT K=   0, I=   0, J=   0

 MAXIMUM STEPSIZE WHICH MEETS STABILITY CRITERION OF THE DISPERSION TERM
 = 0.3796E-01(WHEN MIN. R.F.=1)  AT K=   3, I=   2, J=  32


     1 CALLS TO GCG PACKAGE FOR TRANSPORT TIME STEP   1 IN FLOW TIME STEP 100 STRESS PERIOD   1
     5 TOTAL ITERATIONS
  MAXIMUM CONCENTRATION CHANGES FOR EACH ITERATION:
  MAX. CHANGE LAYER,ROW,COL MAX. CHANGE LAYER,ROW,COL MAX. CHANGE LAYER,ROW,COL MAX. CHANGE LAYER,ROW,COL MAX. CHANGE LAYER,ROW,COL
 ------------------------------------------------------------------------------------------------------------------------------------
   0.1848E-02 (  2,  3, 54)  0.1601E-03 (  3,  2, 33)  0.8851E-05 (  4,  2, 33)  0.9190E-06 (  3,  2, 33)  0.3683E-07 (  2,  2, 33)

 NO OUTPUT CONTROL FOR STRESS PERIOD    1   TIME STEP 100



 >>>>>>>>>>>>>>>>>>>>>>>>>>>>>>>>>>>>>>>>>>>>>>>>>>>>>>>FOR COMPONENT NO. 01<<<<<<<<<<<<<<<<<<<<<<<<<<<<<<<<<<<<<<<<<<<<<<<<<<<<<<<


                                            -------------------------------------------
                                                      TRANSPORT STEP NO.    1
                                            -------------------------------------------

 TOTAL ELAPSED TIME SINCE BEGINNING OF SIMULATION =  1.0000000    D   
 .....................................................................

                     CUMULATIVE MASS BUDGETS AT END OF TRANSPORT STEP    1, TIME STEP  100, STRESS PERIOD    1
                     ------------------------------------------------------------------------------------------

                                                             IN                           OUT
                                                      ----------------             ----------------
                               CONSTANT CONCENTRATION:    130.5042                   -1.574307    
                                        CONSTANT HEAD:    0.000000                    0.000000    
                               MASS STOR (FLOW MODEL):    0.000000                    0.000000    
                                MASS STORAGE (SOLUTE):    0.000000                   -128.9298    
                            ---------------------------------------------------------------------------
                                              [TOTAL]:    130.5042     KG            -130.5042     KG  

                                                          NET (IN - OUT):   0.2144714E-06
                                                   DISCREPANCY (PERCENT):   0.1643407E-06
1
  MASS BUDGET FOR ENTIRE MODEL AT END OF TIME STEP100 IN STRESS PERIOD   1
  ------------------------------------------------------------------------------

     CUMULATIVE MASS      M       RATES FOR THIS TIME STEP      M/T
     ------------------                 ------------------------

           IN:                                      IN:
           ---                                      ---
             STORAGE =           0.0000               STORAGE =           0.0000
       CONSTANT HEAD =         481.4400         CONSTANT HEAD =         476.2231
                DCDT =           0.0000                  DCDT =           0.0000

            TOTAL IN =         481.4400              TOTAL IN =         476.2231

          OUT:                                     OUT:
          ----                                     ----
             STORAGE =           0.0000               STORAGE =           0.0000
       CONSTANT HEAD =         389.1477         CONSTANT HEAD =         392.1083
                DCDT =          92.2922                  DCDT =          84.1146

           TOTAL OUT =         481.4399             TOTAL OUT =         476.2229

            IN - OUT =       1.1202E-04              IN - OUT =       1.5971E-04

 PERCENT DISCREPANCY =           0.00     PERCENT DISCREPANCY =           0.00



0


          TIME SUMMARY AT END OF TRANSPORT STEP    1 IN TIME STEP  100 IN STRESS PERIOD   1
                    SECONDS     MINUTES      HOURS       DAYS        YEARS
                    -----------------------------------------------------------
  TRANS STEP LENGTH  864.00      14.400     0.24000     1.00000E-02 2.73785E-05
   TIME STEP LENGTH  864.00      14.400     0.24000     1.00000E-02 2.73785E-05
 STRESS PERIOD TIME  86400.      1440.0      24.000     1.00000     2.73785E-03
         TOTAL TIME  86400.      1440.0      24.000     1.00000     2.73785E-03
1


                                   ++++++++++++++++++++++++++++++++++++++++++++++++++++++++++++++
                                                       STRESS PERIOD NO.  002
                                   ++++++++++++++++++++++++++++++++++++++++++++++++++++++++++++++


 LENGTH OF CURRENT STRESS PERIOD =  100.00000    
 NUMBER OF TIME STEPS FOR CURRENT STRESS PERIOD =  100
 TIME STEP MULTIPLIER USED IN FLOW SOLUTION =  1.0000000    
 USER-SPECIFIED TRANSPORT STEPSIZE =   0.000000    D   
 MAXIMUM NUMBER OF TRANSPORT STEPS ALLOWED  IN ONE FLOW TIME STEP =     50000
 MULTIPLIER FOR SUCCESSIVE TRANSPORT STEPS  [USED IN IMPLICIT SCHEMES] =     1.000
 MAXIMUM TRANSPORT STEP SIZE  [USED IN IMPLICIT SCHEMES] =   0.000000    D   
1
                            STRESS PERIOD NO.    2, LENGTH =  100.00000    
                            -----------------------------------------------

                              NUMBER OF TIME STEPS =   100

                               MULTIPLIER FOR DELT =     1.000

                            INITIAL TIME STEP SIZE =  1.0000000    

 NO. OF POINT SINKS/SOURCES OF SPECIFIED CONCONCENTRATIONS =    0 IN STRESS PERIOD  2

 CHD NO.   LAYER   ROW   COL    START HEAD        END HEAD         
 ------------------------------------------------------------------
      1      1      1     31       19.50           19.50    
      2      1      1     32       19.50           19.50    
      3      1      1     33       19.50           19.50    
      4      1      1     34       19.50           19.50    
      5      1      1     35       19.50           19.50    
      6      1      1     36       19.50           19.50    
      7      1      1     37       19.50           19.50    
      8      1      1     38       19.50           19.50    
      9      1      1     39       19.50           19.50    
     10      1      1     40       19.50           19.50    
     11      1      1     41       19.50           19.50    
     12      1      1     42       19.50           19.50    
     13      1      1     43       19.50           19.50    
     14      1      1     44       19.50           19.50    
     15      1      1     45       19.50           19.50    
     16      1      1     46       19.50           19.50    
     17      1      1     47       19.50           19.50    
     18      1      1     48       19.50           19.50    
     19      1      1     49       19.50           19.50    
     20      1      1     50       19.50           19.50    
     21      1      1     51       19.50           19.50    
     22      1      1     52       19.50           19.50    
     23      1      1     53       19.50           19.50    
     24      1      1     54       19.50           19.50    
     25      1      1     55       19.50           19.50    
     26      1      1     56       19.50           19.50    
     27      1      1     57       19.50           19.50    
     28      1      1     58       19.50           19.50    
     29      1      1     59       19.50           19.50    
     30      1      1     60       19.50           19.50    
     31      1      1     61       19.50           19.50    
     32      1      1     62       19.50           19.50    
     33      1      1     63       19.50           19.50    
     34      1      1     64       19.50           19.50    
     35      1      1     65       19.50           19.50    
     36      1      1     66       19.50           19.50    
     37      1      1     67       19.50           19.50    
     38      1      1     68       19.50           19.50    
     39      1      1     69       19.50           19.50    
     40      1      1     70       19.50           19.50    
     41      1      2     31       19.50           19.50    
     42      1      2     32       19.50           19.50    
     43      1      2     33       19.50           19.50    
     44      1      2     34       19.50           19.50    
     45      1      2     35       19.50           19.50    
     46      1      2     36       19.50           19.50    
     47      1      2     37       19.50           19.50    
     48      1      2     38       19.50           19.50    
     49      1      2     39       19.50           19.50    
     50      1      2     40       19.50           19.50    
     51      1      2     41       19.50           19.50    
     52      1      2     42       19.50           19.50    
     53      1      2     43       19.50           19.50    
     54      1      2     44       19.50           19.50    
     55      1      2     45       19.50           19.50    
     56      1      2     46       19.50           19.50    
     57      1      2     47       19.50           19.50    
     58      1      2     48       19.50           19.50    
     59      1      2     49       19.50           19.50    
     60      1      2     50       19.50           19.50    
     61      1      2     51       19.50           19.50    
     62      1      2     52       19.50           19.50    
     63      1      2     53       19.50           19.50    
     64      1      2     54       19.50           19.50    
     65      1      2     55       19.50           19.50    
     66      1      2     56       19.50           19.50    
     67      1      2     57       19.50           19.50    
     68      1      2     58       19.50           19.50    
     69      1      2     59       19.50           19.50    
     70      1      2     60       19.50           19.50    
     71      1      2     61       19.50           19.50    
     72      1      2     62       19.50           19.50    
     73      1      2     63       19.50           19.50    
     74      1      2     64       19.50           19.50    
     75      1      2     65       19.50           19.50    
     76      1      2     66       19.50           19.50    
     77      1      2     67       19.50           19.50    
     78      1      2     68       19.50           19.50    
     79      1      2     69       19.50           19.50    
     80      1      2     70       19.50           19.50    
     81      1      3     31       19.50           19.50    
     82      1      3     32       19.50           19.50    
     83      1      3     33       19.50           19.50    
     84      1      3     34       19.50           19.50    
     85      1      3     35       19.50           19.50    
     86      1      3     36       19.50           19.50    
     87      1      3     37       19.50           19.50    
     88      1      3     38       19.50           19.50    
     89      1      3     39       19.50           19.50    
     90      1      3     40       19.50           19.50    
     91      1      3     41       19.50           19.50    
     92      1      3     42       19.50           19.50    
     93      1      3     43       19.50           19.50    
     94      1      3     44       19.50           19.50    
     95      1      3     45       19.50           19.50    
     96      1      3     46       19.50           19.50    
     97      1      3     47       19.50           19.50    
     98      1      3     48       19.50           19.50    
     99      1      3     49       19.50           19.50    
    100      1      3     50       19.50           19.50    
    101      1      3     51       19.50           19.50    
    102      1      3     52       19.50           19.50    
    103      1      3     53       19.50           19.50    
    104      1      3     54       19.50           19.50    
    105      1      3     55       19.50           19.50    
    106      1      3     56       19.50           19.50    
    107      1      3     57       19.50           19.50    
    108      1      3     58       19.50           19.50    
    109      1      3     59       19.50           19.50    
    110      1      3     60       19.50           19.50    
    111      1      3     61       19.50           19.50    
    112      1      3     62       19.50           19.50    
    113      1      3     63       19.50           19.50    
    114      1      3     64       19.50           19.50    
    115      1      3     65       19.50           19.50    
    116      1      3     66       19.50           19.50    
    117      1      3     67       19.50           19.50    
    118      1      3     68       19.50           19.50    
    119      1      3     69       19.50           19.50    
    120      1      3     70       19.50           19.50    


    120 TIME-VARIANT SPECIFIED-HEAD CELLS


                                          ================================================
                                                         FROM TIME =  1.00000     TO    2.0000    

 
 SOLVING FOR HEAD 
 FLOW MODEL IS TRANSIENT
 FLOW MODEL CONTAINS CONSTANT-HEAD CELLS


 MAXIMUM STEPSIZE DURING WHICH ANY PARTICLE CANNOT MOVE MORE THAN ONE CELL
 = 0.1188    (WHEN MIN. R.F.=1)  AT K=   3, I=   2, J=  33

 MAXIMUM STEPSIZE WHICH MEETS STABILITY CRITERION OF THE ADVECTION TERM
 (FOR PURE FINITE-DIFFERENCE OPTION, MIXELM=0) 
 = 0.8139E-01(WHEN MIN. R.F.=1)  AT K=   3, I=   2, J=  32


 TOTAL NUMBER OF POINT SOURCES/SINKS PRESENT IN THE FLOW MODEL =   240

 MAXIMUM STEPSIZE WHICH MEETS STABILITY CRITERION OF THE SINK & SOURCE TERM
 = 0.1000E+31(WHEN MIN. R.F.=1)  AT K=   0, I=   0, J=   0

 MAXIMUM STEPSIZE WHICH MEETS STABILITY CRITERION OF THE DISPERSION TERM
 = 0.5611E-02(WHEN MIN. R.F.=1)  AT K=   3, I=   2, J=  32


     1 CALLS TO GCG PACKAGE FOR TRANSPORT TIME STEP   1 IN FLOW TIME STEP   1 STRESS PERIOD   2
    55 TOTAL ITERATIONS

 NO OUTPUT CONTROL FOR STRESS PERIOD    2   TIME STEP   1
0WARNING: NUMERICAL OSCILLATION ENCOUNTERED
 ONE OR MORE CELL CONCENTRATIONS LESS THAN CRHOREF
 SMALLEST DENSITY =  0.100E+04
 AT CELL (I,J,K) = (   2,  58,  19)

 
 SOLVING FOR HEAD 
 FLOW MODEL IS TRANSIENT
 FLOW MODEL CONTAINS CONSTANT-HEAD CELLS


 MAXIMUM STEPSIZE DURING WHICH ANY PARTICLE CANNOT MOVE MORE THAN ONE CELL
 = 0.1161    (WHEN MIN. R.F.=1)  AT K=   3, I=   2, J=  33

 MAXIMUM STEPSIZE WHICH MEETS STABILITY CRITERION OF THE ADVECTION TERM
 (FOR PURE FINITE-DIFFERENCE OPTION, MIXELM=0) 
 = 0.7963E-01(WHEN MIN. R.F.=1)  AT K=   3, I=   2, J=  32


 TOTAL NUMBER OF POINT SOURCES/SINKS PRESENT IN THE FLOW MODEL =   240

 MAXIMUM STEPSIZE WHICH MEETS STABILITY CRITERION OF THE SINK & SOURCE TERM
 = 0.1000E+31(WHEN MIN. R.F.=1)  AT K=   0, I=   0, J=   0

 MAXIMUM STEPSIZE WHICH MEETS STABILITY CRITERION OF THE DISPERSION TERM
 = 0.5484E-02(WHEN MIN. R.F.=1)  AT K=   3, I=   2, J=  32
     1 CALLS TO GCG PACKAGE FOR TRANSPORT TIME STEP   2 IN FLOW TIME STEP   1 STRESS PERIOD   2
    23 TOTAL ITERATIONS
0WARNING: NUMERICAL OSCILLATION ENCOUNTERED
 ONE OR MORE CELL CONCENTRATIONS LESS THAN CRHOREF
 SMALLEST DENSITY =  0.100E+04
 AT CELL (I,J,K) = (   2,  58,  19)

 
 SOLVING FOR HEAD 
 FLOW MODEL IS TRANSIENT
 FLOW MODEL CONTAINS CONSTANT-HEAD CELLS


 MAXIMUM STEPSIZE DURING WHICH ANY PARTICLE CANNOT MOVE MORE THAN ONE CELL
 = 0.1164    (WHEN MIN. R.F.=1)  AT K=   3, I=   2, J=  33

 MAXIMUM STEPSIZE WHICH MEETS STABILITY CRITERION OF THE ADVECTION TERM
 (FOR PURE FINITE-DIFFERENCE OPTION, MIXELM=0) 
 = 0.7985E-01(WHEN MIN. R.F.=1)  AT K=   3, I=   2, J=  32


 TOTAL NUMBER OF POINT SOURCES/SINKS PRESENT IN THE FLOW MODEL =   240

 MAXIMUM STEPSIZE WHICH MEETS STABILITY CRITERION OF THE SINK & SOURCE TERM
 = 0.1000E+31(WHEN MIN. R.F.=1)  AT K=   0, I=   0, J=   0

 MAXIMUM STEPSIZE WHICH MEETS STABILITY CRITERION OF THE DISPERSION TERM
 = 0.5500E-02(WHEN MIN. R.F.=1)  AT K=   3, I=   2, J=  32
     1 CALLS TO GCG PACKAGE FOR TRANSPORT TIME STEP   3 IN FLOW TIME STEP   1 STRESS PERIOD   2
    22 TOTAL ITERATIONS
0WARNING: NUMERICAL OSCILLATION ENCOUNTERED
 ONE OR MORE CELL CONCENTRATIONS LESS THAN CRHOREF
 SMALLEST DENSITY =  0.100E+04
 AT CELL (I,J,K) = (   2,  58,  19)

 
 SOLVING FOR HEAD 
 FLOW MODEL IS TRANSIENT
 FLOW MODEL CONTAINS CONSTANT-HEAD CELLS


 MAXIMUM STEPSIZE DURING WHICH ANY PARTICLE CANNOT MOVE MORE THAN ONE CELL
 = 0.1167    (WHEN MIN. R.F.=1)  AT K=   3, I=   2, J=  33

 MAXIMUM STEPSIZE WHICH MEETS STABILITY CRITERION OF THE ADVECTION TERM
 (FOR PURE FINITE-DIFFERENCE OPTION, MIXELM=0) 
 = 0.8004E-01(WHEN MIN. R.F.=1)  AT K=   3, I=   2, J=  32


 TOTAL NUMBER OF POINT SOURCES/SINKS PRESENT IN THE FLOW MODEL =   240

 MAXIMUM STEPSIZE WHICH MEETS STABILITY CRITERION OF THE SINK & SOURCE TERM
 = 0.1000E+31(WHEN MIN. R.F.=1)  AT K=   0, I=   0, J=   0

 MAXIMUM STEPSIZE WHICH MEETS STABILITY CRITERION OF THE DISPERSION TERM
 = 0.5513E-02(WHEN MIN. R.F.=1)  AT K=   3, I=   2, J=  32
     1 CALLS TO GCG PACKAGE FOR TRANSPORT TIME STEP   4 IN FLOW TIME STEP   1 STRESS PERIOD   2
    25 TOTAL ITERATIONS
0WARNING: NUMERICAL OSCILLATION ENCOUNTERED
 ONE OR MORE CELL CONCENTRATIONS LESS THAN CRHOREF
 SMALLEST DENSITY =  0.100E+04
 AT CELL (I,J,K) = (   2,  58,  19)

 
 SOLVING FOR HEAD 
 FLOW MODEL IS TRANSIENT
 FLOW MODEL CONTAINS CONSTANT-HEAD CELLS


 MAXIMUM STEPSIZE DURING WHICH ANY PARTICLE CANNOT MOVE MORE THAN ONE CELL
 = 0.1169    (WHEN MIN. R.F.=1)  AT K=   3, I=   2, J=  33

 MAXIMUM STEPSIZE WHICH MEETS STABILITY CRITERION OF THE ADVECTION TERM
 (FOR PURE FINITE-DIFFERENCE OPTION, MIXELM=0) 
 = 0.8020E-01(WHEN MIN. R.F.=1)  AT K=   3, I=   2, J=  32


 TOTAL NUMBER OF POINT SOURCES/SINKS PRESENT IN THE FLOW MODEL =   240

 MAXIMUM STEPSIZE WHICH MEETS STABILITY CRITERION OF THE SINK & SOURCE TERM
 = 0.1000E+31(WHEN MIN. R.F.=1)  AT K=   0, I=   0, J=   0

 MAXIMUM STEPSIZE WHICH MEETS STABILITY CRITERION OF THE DISPERSION TERM
 = 0.5524E-02(WHEN MIN. R.F.=1)  AT K=   3, I=   2, J=  32
     1 CALLS TO GCG PACKAGE FOR TRANSPORT TIME STEP   5 IN FLOW TIME STEP   1 STRESS PERIOD   2
    22 TOTAL ITERATIONS
0WARNING: NUMERICAL OSCILLATION ENCOUNTERED
 ONE OR MORE CELL CONCENTRATIONS LESS THAN CRHOREF
 SMALLEST DENSITY =  0.100E+04
 AT CELL (I,J,K) = (   2,  58,  19)

 
 SOLVING FOR HEAD 
 FLOW MODEL IS TRANSIENT
 FLOW MODEL CONTAINS CONSTANT-HEAD CELLS


 MAXIMUM STEPSIZE DURING WHICH ANY PARTICLE CANNOT MOVE MORE THAN ONE CELL
 = 0.1172    (WHEN MIN. R.F.=1)  AT K=   3, I=   2, J=  33

 MAXIMUM STEPSIZE WHICH MEETS STABILITY CRITERION OF THE ADVECTION TERM
 (FOR PURE FINITE-DIFFERENCE OPTION, MIXELM=0) 
 = 0.8033E-01(WHEN MIN. R.F.=1)  AT K=   3, I=   2, J=  32


 TOTAL NUMBER OF POINT SOURCES/SINKS PRESENT IN THE FLOW MODEL =   240

 MAXIMUM STEPSIZE WHICH MEETS STABILITY CRITERION OF THE SINK & SOURCE TERM
 = 0.1000E+31(WHEN MIN. R.F.=1)  AT K=   0, I=   0, J=   0

 MAXIMUM STEPSIZE WHICH MEETS STABILITY CRITERION OF THE DISPERSION TERM
 = 0.5533E-02(WHEN MIN. R.F.=1)  AT K=   3, I=   2, J=  32
     1 CALLS TO GCG PACKAGE FOR TRANSPORT TIME STEP   6 IN FLOW TIME STEP   1 STRESS PERIOD   2
    16 TOTAL ITERATIONS
  MAXIMUM CONCENTRATION CHANGES FOR EACH ITERATION:
  MAX. CHANGE LAYER,ROW,COL MAX. CHANGE LAYER,ROW,COL MAX. CHANGE LAYER,ROW,COL MAX. CHANGE LAYER,ROW,COL MAX. CHANGE LAYER,ROW,COL
 ------------------------------------------------------------------------------------------------------------------------------------
   0.1457E-01 (  3,  3, 56)  0.4577E-02 (  3,  2, 43)  0.2325E-02 (  4,  2, 35)  0.1423E-02 (  3,  2, 33)  0.8697E-03 (  4,  2, 33)
   0.4058E-03 (  3,  2, 33)  0.1696E-03 (  3,  2, 34)  0.9679E-04 (  4,  2, 34)  0.3633E-04 (  3,  2, 34)  0.1405E-04 (  4,  2, 33)
   0.5884E-05 (  4,  3, 32)  0.2230E-05 (  5,  1, 37)  0.8860E-06 (  3,  1, 36)  0.4650E-06 (  4,  1, 36)  0.1723E-06 (  3,  1, 36)
   0.7303E-07 (  4,  1, 41)
0WARNING: NUMERICAL OSCILLATION ENCOUNTERED
 ONE OR MORE CELL CONCENTRATIONS LESS THAN CRHOREF
 SMALLEST DENSITY =  0.100E+04
 AT CELL (I,J,K) = (   2,  58,  19)



                                          ================================================
                                                         FROM TIME =   2.0000     TO    3.0000    

 
 SOLVING FOR HEAD 
 FLOW MODEL IS TRANSIENT
 FLOW MODEL CONTAINS CONSTANT-HEAD CELLS


 MAXIMUM STEPSIZE DURING WHICH ANY PARTICLE CANNOT MOVE MORE THAN ONE CELL
 = 0.1173    (WHEN MIN. R.F.=1)  AT K=   3, I=   2, J=  33

 MAXIMUM STEPSIZE WHICH MEETS STABILITY CRITERION OF THE ADVECTION TERM
 (FOR PURE FINITE-DIFFERENCE OPTION, MIXELM=0) 
 = 0.8040E-01(WHEN MIN. R.F.=1)  AT K=   3, I=   2, J=  32


 TOTAL NUMBER OF POINT SOURCES/SINKS PRESENT IN THE FLOW MODEL =   240

 MAXIMUM STEPSIZE WHICH MEETS STABILITY CRITERION OF THE SINK & SOURCE TERM
 = 0.1000E+31(WHEN MIN. R.F.=1)  AT K=   0, I=   0, J=   0

 MAXIMUM STEPSIZE WHICH MEETS STABILITY CRITERION OF THE DISPERSION TERM
 = 0.5538E-02(WHEN MIN. R.F.=1)  AT K=   3, I=   2, J=  32


     1 CALLS TO GCG PACKAGE FOR TRANSPORT TIME STEP   1 IN FLOW TIME STEP   2 STRESS PERIOD   2
    22 TOTAL ITERATIONS

 NO OUTPUT CONTROL FOR STRESS PERIOD    2   TIME STEP   2
0WARNING: NUMERICAL OSCILLATION ENCOUNTERED
 ONE OR MORE CELL CONCENTRATIONS LESS THAN CRHOREF
 SMALLEST DENSITY =  0.100E+04
 AT CELL (I,J,K) = (   2,  58,  19)

 
 SOLVING FOR HEAD 
 FLOW MODEL IS TRANSIENT
 FLOW MODEL CONTAINS CONSTANT-HEAD CELLS


 MAXIMUM STEPSIZE DURING WHICH ANY PARTICLE CANNOT MOVE MORE THAN ONE CELL
 = 0.1174    (WHEN MIN. R.F.=1)  AT K=   3, I=   2, J=  33

 MAXIMUM STEPSIZE WHICH MEETS STABILITY CRITERION OF THE ADVECTION TERM
 (FOR PURE FINITE-DIFFERENCE OPTION, MIXELM=0) 
 = 0.8051E-01(WHEN MIN. R.F.=1)  AT K=   3, I=   2, J=  32


 TOTAL NUMBER OF POINT SOURCES/SINKS PRESENT IN THE FLOW MODEL =   240

 MAXIMUM STEPSIZE WHICH MEETS STABILITY CRITERION OF THE SINK & SOURCE TERM
 = 0.1000E+31(WHEN MIN. R.F.=1)  AT K=   0, I=   0, J=   0

 MAXIMUM STEPSIZE WHICH MEETS STABILITY CRITERION OF THE DISPERSION TERM
 = 0.5545E-02(WHEN MIN. R.F.=1)  AT K=   3, I=   2, J=  32
     1 CALLS TO GCG PACKAGE FOR TRANSPORT TIME STEP   2 IN FLOW TIME STEP   2 STRESS PERIOD   2
    22 TOTAL ITERATIONS
0WARNING: NUMERICAL OSCILLATION ENCOUNTERED
 ONE OR MORE CELL CONCENTRATIONS LESS THAN CRHOREF
 SMALLEST DENSITY =  0.100E+04
 AT CELL (I,J,K) = (   2,  58,  19)

 
 SOLVING FOR HEAD 
 FLOW MODEL IS TRANSIENT
 FLOW MODEL CONTAINS CONSTANT-HEAD CELLS


 MAXIMUM STEPSIZE DURING WHICH ANY PARTICLE CANNOT MOVE MORE THAN ONE CELL
 = 0.1176    (WHEN MIN. R.F.=1)  AT K=   3, I=   2, J=  33

 MAXIMUM STEPSIZE WHICH MEETS STABILITY CRITERION OF THE ADVECTION TERM
 (FOR PURE FINITE-DIFFERENCE OPTION, MIXELM=0) 
 = 0.8060E-01(WHEN MIN. R.F.=1)  AT K=   3, I=   2, J=  32


 TOTAL NUMBER OF POINT SOURCES/SINKS PRESENT IN THE FLOW MODEL =   240

 MAXIMUM STEPSIZE WHICH MEETS STABILITY CRITERION OF THE SINK & SOURCE TERM
 = 0.1000E+31(WHEN MIN. R.F.=1)  AT K=   0, I=   0, J=   0

 MAXIMUM STEPSIZE WHICH MEETS STABILITY CRITERION OF THE DISPERSION TERM
 = 0.5552E-02(WHEN MIN. R.F.=1)  AT K=   3, I=   2, J=  32
     1 CALLS TO GCG PACKAGE FOR TRANSPORT TIME STEP   3 IN FLOW TIME STEP   2 STRESS PERIOD   2
    21 TOTAL ITERATIONS
0WARNING: NUMERICAL OSCILLATION ENCOUNTERED
 ONE OR MORE CELL CONCENTRATIONS LESS THAN CRHOREF
 SMALLEST DENSITY =  0.100E+04
 AT CELL (I,J,K) = (   2,  58,  19)

 
 SOLVING FOR HEAD 
 FLOW MODEL IS TRANSIENT
 FLOW MODEL CONTAINS CONSTANT-HEAD CELLS


 MAXIMUM STEPSIZE DURING WHICH ANY PARTICLE CANNOT MOVE MORE THAN ONE CELL
 = 0.1177    (WHEN MIN. R.F.=1)  AT K=   3, I=   2, J=  33

 MAXIMUM STEPSIZE WHICH MEETS STABILITY CRITERION OF THE ADVECTION TERM
 (FOR PURE FINITE-DIFFERENCE OPTION, MIXELM=0) 
 = 0.8068E-01(WHEN MIN. R.F.=1)  AT K=   3, I=   2, J=  32


 TOTAL NUMBER OF POINT SOURCES/SINKS PRESENT IN THE FLOW MODEL =   240

 MAXIMUM STEPSIZE WHICH MEETS STABILITY CRITERION OF THE SINK & SOURCE TERM
 = 0.1000E+31(WHEN MIN. R.F.=1)  AT K=   0, I=   0, J=   0

 MAXIMUM STEPSIZE WHICH MEETS STABILITY CRITERION OF THE DISPERSION TERM
 = 0.5558E-02(WHEN MIN. R.F.=1)  AT K=   3, I=   2, J=  32
     1 CALLS TO GCG PACKAGE FOR TRANSPORT TIME STEP   4 IN FLOW TIME STEP   2 STRESS PERIOD   2
    21 TOTAL ITERATIONS
0WARNING: NUMERICAL OSCILLATION ENCOUNTERED
 ONE OR MORE CELL CONCENTRATIONS LESS THAN CRHOREF
 SMALLEST DENSITY =  0.100E+04
 AT CELL (I,J,K) = (   2,  58,  19)

 
 SOLVING FOR HEAD 
 FLOW MODEL IS TRANSIENT
 FLOW MODEL CONTAINS CONSTANT-HEAD CELLS


 MAXIMUM STEPSIZE DURING WHICH ANY PARTICLE CANNOT MOVE MORE THAN ONE CELL
 = 0.1178    (WHEN MIN. R.F.=1)  AT K=   3, I=   2, J=  33

 MAXIMUM STEPSIZE WHICH MEETS STABILITY CRITERION OF THE ADVECTION TERM
 (FOR PURE FINITE-DIFFERENCE OPTION, MIXELM=0) 
 = 0.8075E-01(WHEN MIN. R.F.=1)  AT K=   3, I=   2, J=  32


 TOTAL NUMBER OF POINT SOURCES/SINKS PRESENT IN THE FLOW MODEL =   240

 MAXIMUM STEPSIZE WHICH MEETS STABILITY CRITERION OF THE SINK & SOURCE TERM
 = 0.1000E+31(WHEN MIN. R.F.=1)  AT K=   0, I=   0, J=   0

 MAXIMUM STEPSIZE WHICH MEETS STABILITY CRITERION OF THE DISPERSION TERM
 = 0.5563E-02(WHEN MIN. R.F.=1)  AT K=   3, I=   2, J=  32
     1 CALLS TO GCG PACKAGE FOR TRANSPORT TIME STEP   5 IN FLOW TIME STEP   2 STRESS PERIOD   2
    21 TOTAL ITERATIONS
0WARNING: NUMERICAL OSCILLATION ENCOUNTERED
 ONE OR MORE CELL CONCENTRATIONS LESS THAN CRHOREF
 SMALLEST DENSITY =  0.100E+04
 AT CELL (I,J,K) = (   2,  58,  19)

 
 SOLVING FOR HEAD 
 FLOW MODEL IS TRANSIENT
 FLOW MODEL CONTAINS CONSTANT-HEAD CELLS


 MAXIMUM STEPSIZE DURING WHICH ANY PARTICLE CANNOT MOVE MORE THAN ONE CELL
 = 0.1179    (WHEN MIN. R.F.=1)  AT K=   3, I=   2, J=  33

 MAXIMUM STEPSIZE WHICH MEETS STABILITY CRITERION OF THE ADVECTION TERM
 (FOR PURE FINITE-DIFFERENCE OPTION, MIXELM=0) 
 = 0.8082E-01(WHEN MIN. R.F.=1)  AT K=   3, I=   2, J=  32


 TOTAL NUMBER OF POINT SOURCES/SINKS PRESENT IN THE FLOW MODEL =   240

 MAXIMUM STEPSIZE WHICH MEETS STABILITY CRITERION OF THE SINK & SOURCE TERM
 = 0.1000E+31(WHEN MIN. R.F.=1)  AT K=   0, I=   0, J=   0

 MAXIMUM STEPSIZE WHICH MEETS STABILITY CRITERION OF THE DISPERSION TERM
 = 0.5567E-02(WHEN MIN. R.F.=1)  AT K=   3, I=   2, J=  32
     1 CALLS TO GCG PACKAGE FOR TRANSPORT TIME STEP   6 IN FLOW TIME STEP   2 STRESS PERIOD   2
    21 TOTAL ITERATIONS
0WARNING: NUMERICAL OSCILLATION ENCOUNTERED
 ONE OR MORE CELL CONCENTRATIONS LESS THAN CRHOREF
 SMALLEST DENSITY =  0.100E+04
 AT CELL (I,J,K) = (   2,  58,  19)

 
 SOLVING FOR HEAD 
 FLOW MODEL IS TRANSIENT
 FLOW MODEL CONTAINS CONSTANT-HEAD CELLS


 MAXIMUM STEPSIZE DURING WHICH ANY PARTICLE CANNOT MOVE MORE THAN ONE CELL
 = 0.1180    (WHEN MIN. R.F.=1)  AT K=   3, I=   2, J=  33

 MAXIMUM STEPSIZE WHICH MEETS STABILITY CRITERION OF THE ADVECTION TERM
 (FOR PURE FINITE-DIFFERENCE OPTION, MIXELM=0) 
 = 0.8088E-01(WHEN MIN. R.F.=1)  AT K=   3, I=   2, J=  32


 TOTAL NUMBER OF POINT SOURCES/SINKS PRESENT IN THE FLOW MODEL =   240

 MAXIMUM STEPSIZE WHICH MEETS STABILITY CRITERION OF THE SINK & SOURCE TERM
 = 0.1000E+31(WHEN MIN. R.F.=1)  AT K=   0, I=   0, J=   0

 MAXIMUM STEPSIZE WHICH MEETS STABILITY CRITERION OF THE DISPERSION TERM
 = 0.5571E-02(WHEN MIN. R.F.=1)  AT K=   3, I=   2, J=  32
     1 CALLS TO GCG PACKAGE FOR TRANSPORT TIME STEP   7 IN FLOW TIME STEP   2 STRESS PERIOD   2
    21 TOTAL ITERATIONS
0WARNING: NUMERICAL OSCILLATION ENCOUNTERED
 ONE OR MORE CELL CONCENTRATIONS LESS THAN CRHOREF
 SMALLEST DENSITY =  0.100E+04
 AT CELL (I,J,K) = (   2,  58,  19)

 
 SOLVING FOR HEAD 
 FLOW MODEL IS TRANSIENT
 FLOW MODEL CONTAINS CONSTANT-HEAD CELLS


 MAXIMUM STEPSIZE DURING WHICH ANY PARTICLE CANNOT MOVE MORE THAN ONE CELL
 = 0.1181    (WHEN MIN. R.F.=1)  AT K=   3, I=   2, J=  33

 MAXIMUM STEPSIZE WHICH MEETS STABILITY CRITERION OF THE ADVECTION TERM
 (FOR PURE FINITE-DIFFERENCE OPTION, MIXELM=0) 
 = 0.8093E-01(WHEN MIN. R.F.=1)  AT K=   3, I=   2, J=  32


 TOTAL NUMBER OF POINT SOURCES/SINKS PRESENT IN THE FLOW MODEL =   240

 MAXIMUM STEPSIZE WHICH MEETS STABILITY CRITERION OF THE SINK & SOURCE TERM
 = 0.1000E+31(WHEN MIN. R.F.=1)  AT K=   0, I=   0, J=   0

 MAXIMUM STEPSIZE WHICH MEETS STABILITY CRITERION OF THE DISPERSION TERM
 = 0.5575E-02(WHEN MIN. R.F.=1)  AT K=   3, I=   2, J=  32
     1 CALLS TO GCG PACKAGE FOR TRANSPORT TIME STEP   8 IN FLOW TIME STEP   2 STRESS PERIOD   2
    21 TOTAL ITERATIONS
0WARNING: NUMERICAL OSCILLATION ENCOUNTERED
 ONE OR MORE CELL CONCENTRATIONS LESS THAN CRHOREF
 SMALLEST DENSITY =  0.100E+04
 AT CELL (I,J,K) = (   2,  58,  19)

 
 SOLVING FOR HEAD 
 FLOW MODEL IS TRANSIENT
 FLOW MODEL CONTAINS CONSTANT-HEAD CELLS


 MAXIMUM STEPSIZE DURING WHICH ANY PARTICLE CANNOT MOVE MORE THAN ONE CELL
 = 0.1181    (WHEN MIN. R.F.=1)  AT K=   3, I=   2, J=  33

 MAXIMUM STEPSIZE WHICH MEETS STABILITY CRITERION OF THE ADVECTION TERM
 (FOR PURE FINITE-DIFFERENCE OPTION, MIXELM=0) 
 = 0.8098E-01(WHEN MIN. R.F.=1)  AT K=   3, I=   2, J=  32


 TOTAL NUMBER OF POINT SOURCES/SINKS PRESENT IN THE FLOW MODEL =   240

 MAXIMUM STEPSIZE WHICH MEETS STABILITY CRITERION OF THE SINK & SOURCE TERM
 = 0.1000E+31(WHEN MIN. R.F.=1)  AT K=   0, I=   0, J=   0

 MAXIMUM STEPSIZE WHICH MEETS STABILITY CRITERION OF THE DISPERSION TERM
 = 0.5578E-02(WHEN MIN. R.F.=1)  AT K=   3, I=   2, J=  32
     1 CALLS TO GCG PACKAGE FOR TRANSPORT TIME STEP   9 IN FLOW TIME STEP   2 STRESS PERIOD   2
    21 TOTAL ITERATIONS
0WARNING: NUMERICAL OSCILLATION ENCOUNTERED
 ONE OR MORE CELL CONCENTRATIONS LESS THAN CRHOREF
 SMALLEST DENSITY =  0.100E+04
 AT CELL (I,J,K) = (   2,  58,  19)

 
 SOLVING FOR HEAD 
 FLOW MODEL IS TRANSIENT
 FLOW MODEL CONTAINS CONSTANT-HEAD CELLS


 MAXIMUM STEPSIZE DURING WHICH ANY PARTICLE CANNOT MOVE MORE THAN ONE CELL
 = 0.1182    (WHEN MIN. R.F.=1)  AT K=   3, I=   2, J=  33

 MAXIMUM STEPSIZE WHICH MEETS STABILITY CRITERION OF THE ADVECTION TERM
 (FOR PURE FINITE-DIFFERENCE OPTION, MIXELM=0) 
 = 0.8102E-01(WHEN MIN. R.F.=1)  AT K=   3, I=   2, J=  32


 TOTAL NUMBER OF POINT SOURCES/SINKS PRESENT IN THE FLOW MODEL =   240

 MAXIMUM STEPSIZE WHICH MEETS STABILITY CRITERION OF THE SINK & SOURCE TERM
 = 0.1000E+31(WHEN MIN. R.F.=1)  AT K=   0, I=   0, J=   0

 MAXIMUM STEPSIZE WHICH MEETS STABILITY CRITERION OF THE DISPERSION TERM
 = 0.5581E-02(WHEN MIN. R.F.=1)  AT K=   3, I=   2, J=  32
     1 CALLS TO GCG PACKAGE FOR TRANSPORT TIME STEP  10 IN FLOW TIME STEP   2 STRESS PERIOD   2
    21 TOTAL ITERATIONS



 >>>>>>>>>>>>>>>>>>>>>>>>>>>>>>>>>>>>>>>>>>>>>>>>>>>>>>>FOR COMPONENT NO. 01<<<<<<<<<<<<<<<<<<<<<<<<<<<<<<<<<<<<<<<<<<<<<<<<<<<<<<<


                                            -------------------------------------------
                                                      TRANSPORT STEP NO.   10
                                            -------------------------------------------

 TOTAL ELAPSED TIME SINCE BEGINNING OF SIMULATION =   2.882721    D   
 .....................................................................

                     CUMULATIVE MASS BUDGETS AT END OF TRANSPORT STEP   10, TIME STEP    2, STRESS PERIOD    2
                     ------------------------------------------------------------------------------------------

                                                             IN                           OUT
                                                      ----------------             ----------------
                               CONSTANT CONCENTRATION:    1151.765                   -102.7275    
                                        CONSTANT HEAD:    0.000000                    0.000000    
                               MASS STOR (FLOW MODEL):   0.1186850E-01              -0.8851192E-03
                                MASS STORAGE (SOLUTE):   0.5528891E-06               -1049.049    
                            ---------------------------------------------------------------------------
                                              [TOTAL]:    1151.777     KG            -1151.777     KG  

                                                          NET (IN - OUT):   0.5534157E-05
                                                   DISCREPANCY (PERCENT):   0.4804885E-06
0WARNING: NUMERICAL OSCILLATION ENCOUNTERED
 ONE OR MORE CELL CONCENTRATIONS LESS THAN CRHOREF
 SMALLEST DENSITY =  0.100E+04
 AT CELL (I,J,K) = (   2,  58,  19)

 
 SOLVING FOR HEAD 
 FLOW MODEL IS TRANSIENT
 FLOW MODEL CONTAINS CONSTANT-HEAD CELLS


 MAXIMUM STEPSIZE DURING WHICH ANY PARTICLE CANNOT MOVE MORE THAN ONE CELL
 = 0.1183    (WHEN MIN. R.F.=1)  AT K=   3, I=   2, J=  33

 MAXIMUM STEPSIZE WHICH MEETS STABILITY CRITERION OF THE ADVECTION TERM
 (FOR PURE FINITE-DIFFERENCE OPTION, MIXELM=0) 
 = 0.8106E-01(WHEN MIN. R.F.=1)  AT K=   3, I=   2, J=  32


 TOTAL NUMBER OF POINT SOURCES/SINKS PRESENT IN THE FLOW MODEL =   240

 MAXIMUM STEPSIZE WHICH MEETS STABILITY CRITERION OF THE SINK & SOURCE TERM
 = 0.1000E+31(WHEN MIN. R.F.=1)  AT K=   0, I=   0, J=   0

 MAXIMUM STEPSIZE WHICH MEETS STABILITY CRITERION OF THE DISPERSION TERM
 = 0.5584E-02(WHEN MIN. R.F.=1)  AT K=   3, I=   2, J=  32
     1 CALLS TO GCG PACKAGE FOR TRANSPORT TIME STEP  11 IN FLOW TIME STEP   2 STRESS PERIOD   2
    20 TOTAL ITERATIONS
0WARNING: NUMERICAL OSCILLATION ENCOUNTERED
 ONE OR MORE CELL CONCENTRATIONS LESS THAN CRHOREF
 SMALLEST DENSITY =  0.100E+04
 AT CELL (I,J,K) = (   2,  58,  19)

 
 SOLVING FOR HEAD 
 FLOW MODEL IS TRANSIENT
 FLOW MODEL CONTAINS CONSTANT-HEAD CELLS


 MAXIMUM STEPSIZE DURING WHICH ANY PARTICLE CANNOT MOVE MORE THAN ONE CELL
 = 0.1183    (WHEN MIN. R.F.=1)  AT K=   3, I=   2, J=  33

 MAXIMUM STEPSIZE WHICH MEETS STABILITY CRITERION OF THE ADVECTION TERM
 (FOR PURE FINITE-DIFFERENCE OPTION, MIXELM=0) 
 = 0.8109E-01(WHEN MIN. R.F.=1)  AT K=   3, I=   2, J=  32


 TOTAL NUMBER OF POINT SOURCES/SINKS PRESENT IN THE FLOW MODEL =   240

 MAXIMUM STEPSIZE WHICH MEETS STABILITY CRITERION OF THE SINK & SOURCE TERM
 = 0.1000E+31(WHEN MIN. R.F.=1)  AT K=   0, I=   0, J=   0

 MAXIMUM STEPSIZE WHICH MEETS STABILITY CRITERION OF THE DISPERSION TERM
 = 0.5586E-02(WHEN MIN. R.F.=1)  AT K=   3, I=   2, J=  32
     1 CALLS TO GCG PACKAGE FOR TRANSPORT TIME STEP  12 IN FLOW TIME STEP   2 STRESS PERIOD   2
    12 TOTAL ITERATIONS
  MAXIMUM CONCENTRATION CHANGES FOR EACH ITERATION:
  MAX. CHANGE LAYER,ROW,COL MAX. CHANGE LAYER,ROW,COL MAX. CHANGE LAYER,ROW,COL MAX. CHANGE LAYER,ROW,COL MAX. CHANGE LAYER,ROW,COL
 ------------------------------------------------------------------------------------------------------------------------------------
   0.4566E-02 (  4,  3, 56)  0.1181E-02 (  3,  2, 43)  0.4853E-03 (  4,  2, 39)  0.2974E-03 (  3,  2, 33)  0.1579E-03 (  4,  2, 33)
   0.6154E-04 (  3,  2, 33)  0.2292E-04 (  3,  2, 34)  0.9377E-05 (  4,  2, 34)  0.2786E-05 (  3,  2, 34)  0.8779E-06 (  4,  2, 33)
   0.3182E-06 (  4,  3, 32)  0.9921E-07 (  5,  1, 35)
0WARNING: NUMERICAL OSCILLATION ENCOUNTERED
 ONE OR MORE CELL CONCENTRATIONS LESS THAN CRHOREF
 SMALLEST DENSITY =  0.100E+04
 AT CELL (I,J,K) = (   3,  37,  22)



                                          ================================================
                                                         FROM TIME =   3.0000     TO    4.0000    

 
 SOLVING FOR HEAD 
 FLOW MODEL IS TRANSIENT
 FLOW MODEL CONTAINS CONSTANT-HEAD CELLS


 MAXIMUM STEPSIZE DURING WHICH ANY PARTICLE CANNOT MOVE MORE THAN ONE CELL
 = 0.1183    (WHEN MIN. R.F.=1)  AT K=   3, I=   2, J=  33

 MAXIMUM STEPSIZE WHICH MEETS STABILITY CRITERION OF THE ADVECTION TERM
 (FOR PURE FINITE-DIFFERENCE OPTION, MIXELM=0) 
 = 0.8111E-01(WHEN MIN. R.F.=1)  AT K=   3, I=   2, J=  32


 TOTAL NUMBER OF POINT SOURCES/SINKS PRESENT IN THE FLOW MODEL =   240

 MAXIMUM STEPSIZE WHICH MEETS STABILITY CRITERION OF THE SINK & SOURCE TERM
 = 0.1000E+31(WHEN MIN. R.F.=1)  AT K=   0, I=   0, J=   0

 MAXIMUM STEPSIZE WHICH MEETS STABILITY CRITERION OF THE DISPERSION TERM
 = 0.5587E-02(WHEN MIN. R.F.=1)  AT K=   3, I=   2, J=  32


     1 CALLS TO GCG PACKAGE FOR TRANSPORT TIME STEP   1 IN FLOW TIME STEP   3 STRESS PERIOD   2
    20 TOTAL ITERATIONS

 NO OUTPUT CONTROL FOR STRESS PERIOD    2   TIME STEP   3
0WARNING: NUMERICAL OSCILLATION ENCOUNTERED
 ONE OR MORE CELL CONCENTRATIONS LESS THAN CRHOREF
 SMALLEST DENSITY =  0.100E+04
 AT CELL (I,J,K) = (   3,  37,  22)

 
 SOLVING FOR HEAD 
 FLOW MODEL IS TRANSIENT
 FLOW MODEL CONTAINS CONSTANT-HEAD CELLS


 MAXIMUM STEPSIZE DURING WHICH ANY PARTICLE CANNOT MOVE MORE THAN ONE CELL
 = 0.1184    (WHEN MIN. R.F.=1)  AT K=   3, I=   2, J=  33

 MAXIMUM STEPSIZE WHICH MEETS STABILITY CRITERION OF THE ADVECTION TERM
 (FOR PURE FINITE-DIFFERENCE OPTION, MIXELM=0) 
 = 0.8114E-01(WHEN MIN. R.F.=1)  AT K=   3, I=   2, J=  32


 TOTAL NUMBER OF POINT SOURCES/SINKS PRESENT IN THE FLOW MODEL =   240

 MAXIMUM STEPSIZE WHICH MEETS STABILITY CRITERION OF THE SINK & SOURCE TERM
 = 0.1000E+31(WHEN MIN. R.F.=1)  AT K=   0, I=   0, J=   0

 MAXIMUM STEPSIZE WHICH MEETS STABILITY CRITERION OF THE DISPERSION TERM
 = 0.5589E-02(WHEN MIN. R.F.=1)  AT K=   3, I=   2, J=  32
     1 CALLS TO GCG PACKAGE FOR TRANSPORT TIME STEP   2 IN FLOW TIME STEP   3 STRESS PERIOD   2
    20 TOTAL ITERATIONS
0WARNING: NUMERICAL OSCILLATION ENCOUNTERED
 ONE OR MORE CELL CONCENTRATIONS LESS THAN CRHOREF
 SMALLEST DENSITY =  0.100E+04
 AT CELL (I,J,K) = (   2,  66,  17)

 
 SOLVING FOR HEAD 
 FLOW MODEL IS TRANSIENT
 FLOW MODEL CONTAINS CONSTANT-HEAD CELLS


 MAXIMUM STEPSIZE DURING WHICH ANY PARTICLE CANNOT MOVE MORE THAN ONE CELL
 = 0.1184    (WHEN MIN. R.F.=1)  AT K=   3, I=   2, J=  33

 MAXIMUM STEPSIZE WHICH MEETS STABILITY CRITERION OF THE ADVECTION TERM
 (FOR PURE FINITE-DIFFERENCE OPTION, MIXELM=0) 
 = 0.8117E-01(WHEN MIN. R.F.=1)  AT K=   3, I=   2, J=  32


 TOTAL NUMBER OF POINT SOURCES/SINKS PRESENT IN THE FLOW MODEL =   240

 MAXIMUM STEPSIZE WHICH MEETS STABILITY CRITERION OF THE SINK & SOURCE TERM
 = 0.1000E+31(WHEN MIN. R.F.=1)  AT K=   0, I=   0, J=   0

 MAXIMUM STEPSIZE WHICH MEETS STABILITY CRITERION OF THE DISPERSION TERM
 = 0.5591E-02(WHEN MIN. R.F.=1)  AT K=   3, I=   2, J=  32
     1 CALLS TO GCG PACKAGE FOR TRANSPORT TIME STEP   3 IN FLOW TIME STEP   3 STRESS PERIOD   2
    20 TOTAL ITERATIONS
0WARNING: NUMERICAL OSCILLATION ENCOUNTERED
 ONE OR MORE CELL CONCENTRATIONS LESS THAN CRHOREF
 SMALLEST DENSITY =  0.100E+04
 AT CELL (I,J,K) = (   2,  66,  17)

 
 SOLVING FOR HEAD 
 FLOW MODEL IS TRANSIENT
 FLOW MODEL CONTAINS CONSTANT-HEAD CELLS


 MAXIMUM STEPSIZE DURING WHICH ANY PARTICLE CANNOT MOVE MORE THAN ONE CELL
 = 0.1185    (WHEN MIN. R.F.=1)  AT K=   3, I=   2, J=  33

 MAXIMUM STEPSIZE WHICH MEETS STABILITY CRITERION OF THE ADVECTION TERM
 (FOR PURE FINITE-DIFFERENCE OPTION, MIXELM=0) 
 = 0.8119E-01(WHEN MIN. R.F.=1)  AT K=   3, I=   2, J=  32


 TOTAL NUMBER OF POINT SOURCES/SINKS PRESENT IN THE FLOW MODEL =   240

 MAXIMUM STEPSIZE WHICH MEETS STABILITY CRITERION OF THE SINK & SOURCE TERM
 = 0.1000E+31(WHEN MIN. R.F.=1)  AT K=   0, I=   0, J=   0

 MAXIMUM STEPSIZE WHICH MEETS STABILITY CRITERION OF THE DISPERSION TERM
 = 0.5593E-02(WHEN MIN. R.F.=1)  AT K=   3, I=   2, J=  32
     1 CALLS TO GCG PACKAGE FOR TRANSPORT TIME STEP   4 IN FLOW TIME STEP   3 STRESS PERIOD   2
    20 TOTAL ITERATIONS
0WARNING: NUMERICAL OSCILLATION ENCOUNTERED
 ONE OR MORE CELL CONCENTRATIONS LESS THAN CRHOREF
 SMALLEST DENSITY =  0.100E+04
 AT CELL (I,J,K) = (   2,  66,  17)

 
 SOLVING FOR HEAD 
 FLOW MODEL IS TRANSIENT
 FLOW MODEL CONTAINS CONSTANT-HEAD CELLS


 MAXIMUM STEPSIZE DURING WHICH ANY PARTICLE CANNOT MOVE MORE THAN ONE CELL
 = 0.1185    (WHEN MIN. R.F.=1)  AT K=   3, I=   2, J=  33

 MAXIMUM STEPSIZE WHICH MEETS STABILITY CRITERION OF THE ADVECTION TERM
 (FOR PURE FINITE-DIFFERENCE OPTION, MIXELM=0) 
 = 0.8122E-01(WHEN MIN. R.F.=1)  AT K=   3, I=   2, J=  32


 TOTAL NUMBER OF POINT SOURCES/SINKS PRESENT IN THE FLOW MODEL =   240

 MAXIMUM STEPSIZE WHICH MEETS STABILITY CRITERION OF THE SINK & SOURCE TERM
 = 0.1000E+31(WHEN MIN. R.F.=1)  AT K=   0, I=   0, J=   0

 MAXIMUM STEPSIZE WHICH MEETS STABILITY CRITERION OF THE DISPERSION TERM
 = 0.5595E-02(WHEN MIN. R.F.=1)  AT K=   3, I=   2, J=  32
     1 CALLS TO GCG PACKAGE FOR TRANSPORT TIME STEP   5 IN FLOW TIME STEP   3 STRESS PERIOD   2
    20 TOTAL ITERATIONS
0WARNING: NUMERICAL OSCILLATION ENCOUNTERED
 ONE OR MORE CELL CONCENTRATIONS LESS THAN CRHOREF
 SMALLEST DENSITY =  0.100E+04
 AT CELL (I,J,K) = (   2,  66,  17)

 
 SOLVING FOR HEAD 
 FLOW MODEL IS TRANSIENT
 FLOW MODEL CONTAINS CONSTANT-HEAD CELLS


 MAXIMUM STEPSIZE DURING WHICH ANY PARTICLE CANNOT MOVE MORE THAN ONE CELL
 = 0.1186    (WHEN MIN. R.F.=1)  AT K=   3, I=   2, J=  33

 MAXIMUM STEPSIZE WHICH MEETS STABILITY CRITERION OF THE ADVECTION TERM
 (FOR PURE FINITE-DIFFERENCE OPTION, MIXELM=0) 
 = 0.8124E-01(WHEN MIN. R.F.=1)  AT K=   3, I=   2, J=  32


 TOTAL NUMBER OF POINT SOURCES/SINKS PRESENT IN THE FLOW MODEL =   240

 MAXIMUM STEPSIZE WHICH MEETS STABILITY CRITERION OF THE SINK & SOURCE TERM
 = 0.1000E+31(WHEN MIN. R.F.=1)  AT K=   0, I=   0, J=   0

 MAXIMUM STEPSIZE WHICH MEETS STABILITY CRITERION OF THE DISPERSION TERM
 = 0.5597E-02(WHEN MIN. R.F.=1)  AT K=   3, I=   2, J=  32
     1 CALLS TO GCG PACKAGE FOR TRANSPORT TIME STEP   6 IN FLOW TIME STEP   3 STRESS PERIOD   2
    20 TOTAL ITERATIONS
0WARNING: NUMERICAL OSCILLATION ENCOUNTERED
 ONE OR MORE CELL CONCENTRATIONS LESS THAN CRHOREF
 SMALLEST DENSITY =  0.100E+04
 AT CELL (I,J,K) = (   2,  66,  17)

 
 SOLVING FOR HEAD 
 FLOW MODEL IS TRANSIENT
 FLOW MODEL CONTAINS CONSTANT-HEAD CELLS


 MAXIMUM STEPSIZE DURING WHICH ANY PARTICLE CANNOT MOVE MORE THAN ONE CELL
 = 0.1186    (WHEN MIN. R.F.=1)  AT K=   3, I=   2, J=  33

 MAXIMUM STEPSIZE WHICH MEETS STABILITY CRITERION OF THE ADVECTION TERM
 (FOR PURE FINITE-DIFFERENCE OPTION, MIXELM=0) 
 = 0.8126E-01(WHEN MIN. R.F.=1)  AT K=   3, I=   2, J=  32


 TOTAL NUMBER OF POINT SOURCES/SINKS PRESENT IN THE FLOW MODEL =   240

 MAXIMUM STEPSIZE WHICH MEETS STABILITY CRITERION OF THE SINK & SOURCE TERM
 = 0.1000E+31(WHEN MIN. R.F.=1)  AT K=   0, I=   0, J=   0

 MAXIMUM STEPSIZE WHICH MEETS STABILITY CRITERION OF THE DISPERSION TERM
 = 0.5598E-02(WHEN MIN. R.F.=1)  AT K=   3, I=   2, J=  32
     1 CALLS TO GCG PACKAGE FOR TRANSPORT TIME STEP   7 IN FLOW TIME STEP   3 STRESS PERIOD   2
    20 TOTAL ITERATIONS
0WARNING: NUMERICAL OSCILLATION ENCOUNTERED
 ONE OR MORE CELL CONCENTRATIONS LESS THAN CRHOREF
 SMALLEST DENSITY =  0.100E+04
 AT CELL (I,J,K) = (   2,  66,  17)

 
 SOLVING FOR HEAD 
 FLOW MODEL IS TRANSIENT
 FLOW MODEL CONTAINS CONSTANT-HEAD CELLS


 MAXIMUM STEPSIZE DURING WHICH ANY PARTICLE CANNOT MOVE MORE THAN ONE CELL
 = 0.1186    (WHEN MIN. R.F.=1)  AT K=   3, I=   2, J=  33

 MAXIMUM STEPSIZE WHICH MEETS STABILITY CRITERION OF THE ADVECTION TERM
 (FOR PURE FINITE-DIFFERENCE OPTION, MIXELM=0) 
 = 0.8128E-01(WHEN MIN. R.F.=1)  AT K=   3, I=   2, J=  32


 TOTAL NUMBER OF POINT SOURCES/SINKS PRESENT IN THE FLOW MODEL =   240

 MAXIMUM STEPSIZE WHICH MEETS STABILITY CRITERION OF THE SINK & SOURCE TERM
 = 0.1000E+31(WHEN MIN. R.F.=1)  AT K=   0, I=   0, J=   0

 MAXIMUM STEPSIZE WHICH MEETS STABILITY CRITERION OF THE DISPERSION TERM
 = 0.5600E-02(WHEN MIN. R.F.=1)  AT K=   3, I=   2, J=  32
     1 CALLS TO GCG PACKAGE FOR TRANSPORT TIME STEP   8 IN FLOW TIME STEP   3 STRESS PERIOD   2
    20 TOTAL ITERATIONS
0WARNING: NUMERICAL OSCILLATION ENCOUNTERED
 ONE OR MORE CELL CONCENTRATIONS LESS THAN CRHOREF
 SMALLEST DENSITY =  0.100E+04
 AT CELL (I,J,K) = (   2,  66,  17)

 
 SOLVING FOR HEAD 
 FLOW MODEL IS TRANSIENT
 FLOW MODEL CONTAINS CONSTANT-HEAD CELLS


 MAXIMUM STEPSIZE DURING WHICH ANY PARTICLE CANNOT MOVE MORE THAN ONE CELL
 = 0.1186    (WHEN MIN. R.F.=1)  AT K=   3, I=   2, J=  33

 MAXIMUM STEPSIZE WHICH MEETS STABILITY CRITERION OF THE ADVECTION TERM
 (FOR PURE FINITE-DIFFERENCE OPTION, MIXELM=0) 
 = 0.8130E-01(WHEN MIN. R.F.=1)  AT K=   3, I=   2, J=  32


 TOTAL NUMBER OF POINT SOURCES/SINKS PRESENT IN THE FLOW MODEL =   240

 MAXIMUM STEPSIZE WHICH MEETS STABILITY CRITERION OF THE SINK & SOURCE TERM
 = 0.1000E+31(WHEN MIN. R.F.=1)  AT K=   0, I=   0, J=   0

 MAXIMUM STEPSIZE WHICH MEETS STABILITY CRITERION OF THE DISPERSION TERM
 = 0.5601E-02(WHEN MIN. R.F.=1)  AT K=   3, I=   2, J=  32
     1 CALLS TO GCG PACKAGE FOR TRANSPORT TIME STEP   9 IN FLOW TIME STEP   3 STRESS PERIOD   2
    20 TOTAL ITERATIONS
0WARNING: NUMERICAL OSCILLATION ENCOUNTERED
 ONE OR MORE CELL CONCENTRATIONS LESS THAN CRHOREF
 SMALLEST DENSITY =  0.100E+04
 AT CELL (I,J,K) = (   2,  66,  17)

 
 SOLVING FOR HEAD 
 FLOW MODEL IS TRANSIENT
 FLOW MODEL CONTAINS CONSTANT-HEAD CELLS


 MAXIMUM STEPSIZE DURING WHICH ANY PARTICLE CANNOT MOVE MORE THAN ONE CELL
 = 0.1187    (WHEN MIN. R.F.=1)  AT K=   3, I=   2, J=  33

 MAXIMUM STEPSIZE WHICH MEETS STABILITY CRITERION OF THE ADVECTION TERM
 (FOR PURE FINITE-DIFFERENCE OPTION, MIXELM=0) 
 = 0.8132E-01(WHEN MIN. R.F.=1)  AT K=   3, I=   2, J=  32


 TOTAL NUMBER OF POINT SOURCES/SINKS PRESENT IN THE FLOW MODEL =   240

 MAXIMUM STEPSIZE WHICH MEETS STABILITY CRITERION OF THE SINK & SOURCE TERM
 = 0.1000E+31(WHEN MIN. R.F.=1)  AT K=   0, I=   0, J=   0

 MAXIMUM STEPSIZE WHICH MEETS STABILITY CRITERION OF THE DISPERSION TERM
 = 0.5602E-02(WHEN MIN. R.F.=1)  AT K=   3, I=   2, J=  32
     1 CALLS TO GCG PACKAGE FOR TRANSPORT TIME STEP  10 IN FLOW TIME STEP   3 STRESS PERIOD   2
    20 TOTAL ITERATIONS



 >>>>>>>>>>>>>>>>>>>>>>>>>>>>>>>>>>>>>>>>>>>>>>>>>>>>>>>FOR COMPONENT NO. 01<<<<<<<<<<<<<<<<<<<<<<<<<<<<<<<<<<<<<<<<<<<<<<<<<<<<<<<


                                            -------------------------------------------
                                                      TRANSPORT STEP NO.   10
                                            -------------------------------------------

 TOTAL ELAPSED TIME SINCE BEGINNING OF SIMULATION =   3.888692    D   
 .....................................................................

                     CUMULATIVE MASS BUDGETS AT END OF TRANSPORT STEP   10, TIME STEP    3, STRESS PERIOD    2
                     ------------------------------------------------------------------------------------------

                                                             IN                           OUT
                                                      ----------------             ----------------
                               CONSTANT CONCENTRATION:    1531.658                   -171.8076    
                                        CONSTANT HEAD:    0.000000                    0.000000    
                               MASS STOR (FLOW MODEL):   0.1186850E-01              -0.1344178E-02
                                MASS STORAGE (SOLUTE):   0.5600268E-06               -1359.861    
                            ---------------------------------------------------------------------------
                                              [TOTAL]:    1531.670     KG            -1531.670     KG  

                                                          NET (IN - OUT):   0.2761928E-05
                                                   DISCREPANCY (PERCENT):   0.1803213E-06
0WARNING: NUMERICAL OSCILLATION ENCOUNTERED
 ONE OR MORE CELL CONCENTRATIONS LESS THAN CRHOREF
 SMALLEST DENSITY =  0.100E+04
 AT CELL (I,J,K) = (   2,  66,  17)

 
 SOLVING FOR HEAD 
 FLOW MODEL IS TRANSIENT
 FLOW MODEL CONTAINS CONSTANT-HEAD CELLS


 MAXIMUM STEPSIZE DURING WHICH ANY PARTICLE CANNOT MOVE MORE THAN ONE CELL
 = 0.1187    (WHEN MIN. R.F.=1)  AT K=   3, I=   2, J=  33

 MAXIMUM STEPSIZE WHICH MEETS STABILITY CRITERION OF THE ADVECTION TERM
 (FOR PURE FINITE-DIFFERENCE OPTION, MIXELM=0) 
 = 0.8134E-01(WHEN MIN. R.F.=1)  AT K=   3, I=   2, J=  32


 TOTAL NUMBER OF POINT SOURCES/SINKS PRESENT IN THE FLOW MODEL =   240

 MAXIMUM STEPSIZE WHICH MEETS STABILITY CRITERION OF THE SINK & SOURCE TERM
 = 0.1000E+31(WHEN MIN. R.F.=1)  AT K=   0, I=   0, J=   0

 MAXIMUM STEPSIZE WHICH MEETS STABILITY CRITERION OF THE DISPERSION TERM
 = 0.5603E-02(WHEN MIN. R.F.=1)  AT K=   3, I=   2, J=  32
     1 CALLS TO GCG PACKAGE FOR TRANSPORT TIME STEP  11 IN FLOW TIME STEP   3 STRESS PERIOD   2
    20 TOTAL ITERATIONS
0WARNING: NUMERICAL OSCILLATION ENCOUNTERED
 ONE OR MORE CELL CONCENTRATIONS LESS THAN CRHOREF
 SMALLEST DENSITY =  0.100E+04
 AT CELL (I,J,K) = (   2,  66,  17)

 
 SOLVING FOR HEAD 
 FLOW MODEL IS TRANSIENT
 FLOW MODEL CONTAINS CONSTANT-HEAD CELLS


 MAXIMUM STEPSIZE DURING WHICH ANY PARTICLE CANNOT MOVE MORE THAN ONE CELL
 = 0.1187    (WHEN MIN. R.F.=1)  AT K=   3, I=   2, J=  33

 MAXIMUM STEPSIZE WHICH MEETS STABILITY CRITERION OF THE ADVECTION TERM
 (FOR PURE FINITE-DIFFERENCE OPTION, MIXELM=0) 
 = 0.8135E-01(WHEN MIN. R.F.=1)  AT K=   3, I=   2, J=  32


 TOTAL NUMBER OF POINT SOURCES/SINKS PRESENT IN THE FLOW MODEL =   240

 MAXIMUM STEPSIZE WHICH MEETS STABILITY CRITERION OF THE SINK & SOURCE TERM
 = 0.1000E+31(WHEN MIN. R.F.=1)  AT K=   0, I=   0, J=   0

 MAXIMUM STEPSIZE WHICH MEETS STABILITY CRITERION OF THE DISPERSION TERM
 = 0.5604E-02(WHEN MIN. R.F.=1)  AT K=   3, I=   2, J=  32
     1 CALLS TO GCG PACKAGE FOR TRANSPORT TIME STEP  12 IN FLOW TIME STEP   3 STRESS PERIOD   2
    11 TOTAL ITERATIONS
  MAXIMUM CONCENTRATION CHANGES FOR EACH ITERATION:
  MAX. CHANGE LAYER,ROW,COL MAX. CHANGE LAYER,ROW,COL MAX. CHANGE LAYER,ROW,COL MAX. CHANGE LAYER,ROW,COL MAX. CHANGE LAYER,ROW,COL
 ------------------------------------------------------------------------------------------------------------------------------------
   0.2604E-02 (  7,  3, 53)  0.5427E-03 (  4,  2, 53)  0.1976E-03 (  4,  2, 33)  0.1168E-03 (  3,  2, 33)  0.5441E-04 (  4,  2, 33)
   0.1954E-04 (  3,  2, 33)  0.6411E-05 (  3,  2, 34)  0.2174E-05 (  4,  2, 34)  0.6074E-06 (  3,  2, 34)  0.1710E-06 (  3,  3, 32)
   0.5081E-07 (  3,  2, 33)
0WARNING: NUMERICAL OSCILLATION ENCOUNTERED
 ONE OR MORE CELL CONCENTRATIONS LESS THAN CRHOREF
 SMALLEST DENSITY =  0.100E+04
 AT CELL (I,J,K) = (   2,  66,  17)



                                          ================================================
                                                         FROM TIME =   4.0000     TO    5.0000    

 
 SOLVING FOR HEAD 
 FLOW MODEL IS TRANSIENT
 FLOW MODEL CONTAINS CONSTANT-HEAD CELLS


 MAXIMUM STEPSIZE DURING WHICH ANY PARTICLE CANNOT MOVE MORE THAN ONE CELL
 = 0.1187    (WHEN MIN. R.F.=1)  AT K=   3, I=   2, J=  33

 MAXIMUM STEPSIZE WHICH MEETS STABILITY CRITERION OF THE ADVECTION TERM
 (FOR PURE FINITE-DIFFERENCE OPTION, MIXELM=0) 
 = 0.8135E-01(WHEN MIN. R.F.=1)  AT K=   3, I=   2, J=  32


 TOTAL NUMBER OF POINT SOURCES/SINKS PRESENT IN THE FLOW MODEL =   240

 MAXIMUM STEPSIZE WHICH MEETS STABILITY CRITERION OF THE SINK & SOURCE TERM
 = 0.1000E+31(WHEN MIN. R.F.=1)  AT K=   0, I=   0, J=   0

 MAXIMUM STEPSIZE WHICH MEETS STABILITY CRITERION OF THE DISPERSION TERM
 = 0.5604E-02(WHEN MIN. R.F.=1)  AT K=   3, I=   2, J=  32


     1 CALLS TO GCG PACKAGE FOR TRANSPORT TIME STEP   1 IN FLOW TIME STEP   4 STRESS PERIOD   2
    20 TOTAL ITERATIONS

 NO OUTPUT CONTROL FOR STRESS PERIOD    2   TIME STEP   4
0WARNING: NUMERICAL OSCILLATION ENCOUNTERED
 ONE OR MORE CELL CONCENTRATIONS LESS THAN CRHOREF
 SMALLEST DENSITY =  0.100E+04
 AT CELL (I,J,K) = (   2,  66,  17)

 
 SOLVING FOR HEAD 
 FLOW MODEL IS TRANSIENT
 FLOW MODEL CONTAINS CONSTANT-HEAD CELLS


 MAXIMUM STEPSIZE DURING WHICH ANY PARTICLE CANNOT MOVE MORE THAN ONE CELL
 = 0.1188    (WHEN MIN. R.F.=1)  AT K=   3, I=   2, J=  33

 MAXIMUM STEPSIZE WHICH MEETS STABILITY CRITERION OF THE ADVECTION TERM
 (FOR PURE FINITE-DIFFERENCE OPTION, MIXELM=0) 
 = 0.8137E-01(WHEN MIN. R.F.=1)  AT K=   3, I=   2, J=  32


 TOTAL NUMBER OF POINT SOURCES/SINKS PRESENT IN THE FLOW MODEL =   240

 MAXIMUM STEPSIZE WHICH MEETS STABILITY CRITERION OF THE SINK & SOURCE TERM
 = 0.1000E+31(WHEN MIN. R.F.=1)  AT K=   0, I=   0, J=   0

 MAXIMUM STEPSIZE WHICH MEETS STABILITY CRITERION OF THE DISPERSION TERM
 = 0.5605E-02(WHEN MIN. R.F.=1)  AT K=   3, I=   2, J=  32
     1 CALLS TO GCG PACKAGE FOR TRANSPORT TIME STEP   2 IN FLOW TIME STEP   4 STRESS PERIOD   2
    20 TOTAL ITERATIONS
0WARNING: NUMERICAL OSCILLATION ENCOUNTERED
 ONE OR MORE CELL CONCENTRATIONS LESS THAN CRHOREF
 SMALLEST DENSITY =  0.100E+04
 AT CELL (I,J,K) = (   2,  66,  17)

 
 SOLVING FOR HEAD 
 FLOW MODEL IS TRANSIENT
 FLOW MODEL CONTAINS CONSTANT-HEAD CELLS


 MAXIMUM STEPSIZE DURING WHICH ANY PARTICLE CANNOT MOVE MORE THAN ONE CELL
 = 0.1188    (WHEN MIN. R.F.=1)  AT K=   3, I=   2, J=  33

 MAXIMUM STEPSIZE WHICH MEETS STABILITY CRITERION OF THE ADVECTION TERM
 (FOR PURE FINITE-DIFFERENCE OPTION, MIXELM=0) 
 = 0.8138E-01(WHEN MIN. R.F.=1)  AT K=   3, I=   2, J=  32


 TOTAL NUMBER OF POINT SOURCES/SINKS PRESENT IN THE FLOW MODEL =   240

 MAXIMUM STEPSIZE WHICH MEETS STABILITY CRITERION OF THE SINK & SOURCE TERM
 = 0.1000E+31(WHEN MIN. R.F.=1)  AT K=   0, I=   0, J=   0

 MAXIMUM STEPSIZE WHICH MEETS STABILITY CRITERION OF THE DISPERSION TERM
 = 0.5606E-02(WHEN MIN. R.F.=1)  AT K=   3, I=   2, J=  32
     1 CALLS TO GCG PACKAGE FOR TRANSPORT TIME STEP   3 IN FLOW TIME STEP   4 STRESS PERIOD   2
    19 TOTAL ITERATIONS
0WARNING: NUMERICAL OSCILLATION ENCOUNTERED
 ONE OR MORE CELL CONCENTRATIONS LESS THAN CRHOREF
 SMALLEST DENSITY =  0.100E+04
 AT CELL (I,J,K) = (   2,  66,  17)

 
 SOLVING FOR HEAD 
 FLOW MODEL IS TRANSIENT
 FLOW MODEL CONTAINS CONSTANT-HEAD CELLS


 MAXIMUM STEPSIZE DURING WHICH ANY PARTICLE CANNOT MOVE MORE THAN ONE CELL
 = 0.1188    (WHEN MIN. R.F.=1)  AT K=   3, I=   2, J=  33

 MAXIMUM STEPSIZE WHICH MEETS STABILITY CRITERION OF THE ADVECTION TERM
 (FOR PURE FINITE-DIFFERENCE OPTION, MIXELM=0) 
 = 0.8139E-01(WHEN MIN. R.F.=1)  AT K=   3, I=   2, J=  32


 TOTAL NUMBER OF POINT SOURCES/SINKS PRESENT IN THE FLOW MODEL =   240

 MAXIMUM STEPSIZE WHICH MEETS STABILITY CRITERION OF THE SINK & SOURCE TERM
 = 0.1000E+31(WHEN MIN. R.F.=1)  AT K=   0, I=   0, J=   0

 MAXIMUM STEPSIZE WHICH MEETS STABILITY CRITERION OF THE DISPERSION TERM
 = 0.5607E-02(WHEN MIN. R.F.=1)  AT K=   3, I=   2, J=  32
     1 CALLS TO GCG PACKAGE FOR TRANSPORT TIME STEP   4 IN FLOW TIME STEP   4 STRESS PERIOD   2
    19 TOTAL ITERATIONS
0WARNING: NUMERICAL OSCILLATION ENCOUNTERED
 ONE OR MORE CELL CONCENTRATIONS LESS THAN CRHOREF
 SMALLEST DENSITY =  0.100E+04
 AT CELL (I,J,K) = (   2,  67,  17)

 
 SOLVING FOR HEAD 
 FLOW MODEL IS TRANSIENT
 FLOW MODEL CONTAINS CONSTANT-HEAD CELLS


 MAXIMUM STEPSIZE DURING WHICH ANY PARTICLE CANNOT MOVE MORE THAN ONE CELL
 = 0.1188    (WHEN MIN. R.F.=1)  AT K=   3, I=   2, J=  33

 MAXIMUM STEPSIZE WHICH MEETS STABILITY CRITERION OF THE ADVECTION TERM
 (FOR PURE FINITE-DIFFERENCE OPTION, MIXELM=0) 
 = 0.8140E-01(WHEN MIN. R.F.=1)  AT K=   3, I=   2, J=  32


 TOTAL NUMBER OF POINT SOURCES/SINKS PRESENT IN THE FLOW MODEL =   240

 MAXIMUM STEPSIZE WHICH MEETS STABILITY CRITERION OF THE SINK & SOURCE TERM
 = 0.1000E+31(WHEN MIN. R.F.=1)  AT K=   0, I=   0, J=   0

 MAXIMUM STEPSIZE WHICH MEETS STABILITY CRITERION OF THE DISPERSION TERM
 = 0.5608E-02(WHEN MIN. R.F.=1)  AT K=   3, I=   2, J=  32
     1 CALLS TO GCG PACKAGE FOR TRANSPORT TIME STEP   5 IN FLOW TIME STEP   4 STRESS PERIOD   2
    19 TOTAL ITERATIONS
0WARNING: NUMERICAL OSCILLATION ENCOUNTERED
 ONE OR MORE CELL CONCENTRATIONS LESS THAN CRHOREF
 SMALLEST DENSITY =  0.100E+04
 AT CELL (I,J,K) = (   2,  67,  17)

 
 SOLVING FOR HEAD 
 FLOW MODEL IS TRANSIENT
 FLOW MODEL CONTAINS CONSTANT-HEAD CELLS


 MAXIMUM STEPSIZE DURING WHICH ANY PARTICLE CANNOT MOVE MORE THAN ONE CELL
 = 0.1188    (WHEN MIN. R.F.=1)  AT K=   3, I=   2, J=  33

 MAXIMUM STEPSIZE WHICH MEETS STABILITY CRITERION OF THE ADVECTION TERM
 (FOR PURE FINITE-DIFFERENCE OPTION, MIXELM=0) 
 = 0.8141E-01(WHEN MIN. R.F.=1)  AT K=   3, I=   2, J=  32


 TOTAL NUMBER OF POINT SOURCES/SINKS PRESENT IN THE FLOW MODEL =   240

 MAXIMUM STEPSIZE WHICH MEETS STABILITY CRITERION OF THE SINK & SOURCE TERM
 = 0.1000E+31(WHEN MIN. R.F.=1)  AT K=   0, I=   0, J=   0

 MAXIMUM STEPSIZE WHICH MEETS STABILITY CRITERION OF THE DISPERSION TERM
 = 0.5609E-02(WHEN MIN. R.F.=1)  AT K=   3, I=   2, J=  32
     1 CALLS TO GCG PACKAGE FOR TRANSPORT TIME STEP   6 IN FLOW TIME STEP   4 STRESS PERIOD   2
    19 TOTAL ITERATIONS
0WARNING: NUMERICAL OSCILLATION ENCOUNTERED
 ONE OR MORE CELL CONCENTRATIONS LESS THAN CRHOREF
 SMALLEST DENSITY =  0.100E+04
 AT CELL (I,J,K) = (   2,  67,  17)

 
 SOLVING FOR HEAD 
 FLOW MODEL IS TRANSIENT
 FLOW MODEL CONTAINS CONSTANT-HEAD CELLS


 MAXIMUM STEPSIZE DURING WHICH ANY PARTICLE CANNOT MOVE MORE THAN ONE CELL
 = 0.1188    (WHEN MIN. R.F.=1)  AT K=   3, I=   2, J=  33

 MAXIMUM STEPSIZE WHICH MEETS STABILITY CRITERION OF THE ADVECTION TERM
 (FOR PURE FINITE-DIFFERENCE OPTION, MIXELM=0) 
 = 0.8142E-01(WHEN MIN. R.F.=1)  AT K=   3, I=   2, J=  32


 TOTAL NUMBER OF POINT SOURCES/SINKS PRESENT IN THE FLOW MODEL =   240

 MAXIMUM STEPSIZE WHICH MEETS STABILITY CRITERION OF THE SINK & SOURCE TERM
 = 0.1000E+31(WHEN MIN. R.F.=1)  AT K=   0, I=   0, J=   0

 MAXIMUM STEPSIZE WHICH MEETS STABILITY CRITERION OF THE DISPERSION TERM
 = 0.5609E-02(WHEN MIN. R.F.=1)  AT K=   3, I=   2, J=  32
     1 CALLS TO GCG PACKAGE FOR TRANSPORT TIME STEP   7 IN FLOW TIME STEP   4 STRESS PERIOD   2
    19 TOTAL ITERATIONS
0WARNING: NUMERICAL OSCILLATION ENCOUNTERED
 ONE OR MORE CELL CONCENTRATIONS LESS THAN CRHOREF
 SMALLEST DENSITY =  0.100E+04
 AT CELL (I,J,K) = (   2,  67,  17)

 
 SOLVING FOR HEAD 
 FLOW MODEL IS TRANSIENT
 FLOW MODEL CONTAINS CONSTANT-HEAD CELLS


 MAXIMUM STEPSIZE DURING WHICH ANY PARTICLE CANNOT MOVE MORE THAN ONE CELL
 = 0.1189    (WHEN MIN. R.F.=1)  AT K=   3, I=   2, J=  33

 MAXIMUM STEPSIZE WHICH MEETS STABILITY CRITERION OF THE ADVECTION TERM
 (FOR PURE FINITE-DIFFERENCE OPTION, MIXELM=0) 
 = 0.8143E-01(WHEN MIN. R.F.=1)  AT K=   3, I=   2, J=  32


 TOTAL NUMBER OF POINT SOURCES/SINKS PRESENT IN THE FLOW MODEL =   240

 MAXIMUM STEPSIZE WHICH MEETS STABILITY CRITERION OF THE SINK & SOURCE TERM
 = 0.1000E+31(WHEN MIN. R.F.=1)  AT K=   0, I=   0, J=   0

 MAXIMUM STEPSIZE WHICH MEETS STABILITY CRITERION OF THE DISPERSION TERM
 = 0.5610E-02(WHEN MIN. R.F.=1)  AT K=   3, I=   2, J=  32
     1 CALLS TO GCG PACKAGE FOR TRANSPORT TIME STEP   8 IN FLOW TIME STEP   4 STRESS PERIOD   2
    19 TOTAL ITERATIONS
0WARNING: NUMERICAL OSCILLATION ENCOUNTERED
 ONE OR MORE CELL CONCENTRATIONS LESS THAN CRHOREF
 SMALLEST DENSITY =  0.100E+04
 AT CELL (I,J,K) = (   2,  67,  17)

 
 SOLVING FOR HEAD 
 FLOW MODEL IS TRANSIENT
 FLOW MODEL CONTAINS CONSTANT-HEAD CELLS


 MAXIMUM STEPSIZE DURING WHICH ANY PARTICLE CANNOT MOVE MORE THAN ONE CELL
 = 0.1189    (WHEN MIN. R.F.=1)  AT K=   3, I=   2, J=  33

 MAXIMUM STEPSIZE WHICH MEETS STABILITY CRITERION OF THE ADVECTION TERM
 (FOR PURE FINITE-DIFFERENCE OPTION, MIXELM=0) 
 = 0.8144E-01(WHEN MIN. R.F.=1)  AT K=   3, I=   2, J=  32


 TOTAL NUMBER OF POINT SOURCES/SINKS PRESENT IN THE FLOW MODEL =   240

 MAXIMUM STEPSIZE WHICH MEETS STABILITY CRITERION OF THE SINK & SOURCE TERM
 = 0.1000E+31(WHEN MIN. R.F.=1)  AT K=   0, I=   0, J=   0

 MAXIMUM STEPSIZE WHICH MEETS STABILITY CRITERION OF THE DISPERSION TERM
 = 0.5611E-02(WHEN MIN. R.F.=1)  AT K=   3, I=   2, J=  32
     1 CALLS TO GCG PACKAGE FOR TRANSPORT TIME STEP   9 IN FLOW TIME STEP   4 STRESS PERIOD   2
    19 TOTAL ITERATIONS
0WARNING: NUMERICAL OSCILLATION ENCOUNTERED
 ONE OR MORE CELL CONCENTRATIONS LESS THAN CRHOREF
 SMALLEST DENSITY =  0.100E+04
 AT CELL (I,J,K) = (   2,  67,  17)

 
 SOLVING FOR HEAD 
 FLOW MODEL IS TRANSIENT
 FLOW MODEL CONTAINS CONSTANT-HEAD CELLS


 MAXIMUM STEPSIZE DURING WHICH ANY PARTICLE CANNOT MOVE MORE THAN ONE CELL
 = 0.1189    (WHEN MIN. R.F.=1)  AT K=   3, I=   2, J=  33

 MAXIMUM STEPSIZE WHICH MEETS STABILITY CRITERION OF THE ADVECTION TERM
 (FOR PURE FINITE-DIFFERENCE OPTION, MIXELM=0) 
 = 0.8145E-01(WHEN MIN. R.F.=1)  AT K=   3, I=   2, J=  32


 TOTAL NUMBER OF POINT SOURCES/SINKS PRESENT IN THE FLOW MODEL =   240

 MAXIMUM STEPSIZE WHICH MEETS STABILITY CRITERION OF THE SINK & SOURCE TERM
 = 0.1000E+31(WHEN MIN. R.F.=1)  AT K=   0, I=   0, J=   0

 MAXIMUM STEPSIZE WHICH MEETS STABILITY CRITERION OF THE DISPERSION TERM
 = 0.5611E-02(WHEN MIN. R.F.=1)  AT K=   3, I=   2, J=  32
     1 CALLS TO GCG PACKAGE FOR TRANSPORT TIME STEP  10 IN FLOW TIME STEP   4 STRESS PERIOD   2
    19 TOTAL ITERATIONS



 >>>>>>>>>>>>>>>>>>>>>>>>>>>>>>>>>>>>>>>>>>>>>>>>>>>>>>>FOR COMPONENT NO. 01<<<<<<<<<<<<<<<<<<<<<<<<<<<<<<<<<<<<<<<<<<<<<<<<<<<<<<<


                                            -------------------------------------------
                                                      TRANSPORT STEP NO.   10
                                            -------------------------------------------

 TOTAL ELAPSED TIME SINCE BEGINNING OF SIMULATION =   4.890963    D   
 .....................................................................

                     CUMULATIVE MASS BUDGETS AT END OF TRANSPORT STEP   10, TIME STEP    4, STRESS PERIOD    2
                     ------------------------------------------------------------------------------------------

                                                             IN                           OUT
                                                      ----------------             ----------------
                               CONSTANT CONCENTRATION:    1856.771                   -245.6227    
                                        CONSTANT HEAD:    0.000000                    0.000000    
                               MASS STOR (FLOW MODEL):   0.1186850E-01              -0.1666455E-02
                                MASS STORAGE (SOLUTE):   0.5617184E-06               -1611.159    
                            ---------------------------------------------------------------------------
                                              [TOTAL]:    1856.783     KG            -1856.783     KG  

                                                          NET (IN - OUT):  -0.2920966E-04
                                                   DISCREPANCY (PERCENT):  -0.1573133E-05
0WARNING: NUMERICAL OSCILLATION ENCOUNTERED
 ONE OR MORE CELL CONCENTRATIONS LESS THAN CRHOREF
 SMALLEST DENSITY =  0.100E+04
 AT CELL (I,J,K) = (   2,  66,  18)

 
 SOLVING FOR HEAD 
 FLOW MODEL IS TRANSIENT
 FLOW MODEL CONTAINS CONSTANT-HEAD CELLS


 MAXIMUM STEPSIZE DURING WHICH ANY PARTICLE CANNOT MOVE MORE THAN ONE CELL
 = 0.1189    (WHEN MIN. R.F.=1)  AT K=   3, I=   2, J=  33

 MAXIMUM STEPSIZE WHICH MEETS STABILITY CRITERION OF THE ADVECTION TERM
 (FOR PURE FINITE-DIFFERENCE OPTION, MIXELM=0) 
 = 0.8146E-01(WHEN MIN. R.F.=1)  AT K=   3, I=   2, J=  32


 TOTAL NUMBER OF POINT SOURCES/SINKS PRESENT IN THE FLOW MODEL =   240

 MAXIMUM STEPSIZE WHICH MEETS STABILITY CRITERION OF THE SINK & SOURCE TERM
 = 0.1000E+31(WHEN MIN. R.F.=1)  AT K=   0, I=   0, J=   0

 MAXIMUM STEPSIZE WHICH MEETS STABILITY CRITERION OF THE DISPERSION TERM
 = 0.5612E-02(WHEN MIN. R.F.=1)  AT K=   3, I=   2, J=  32
     1 CALLS TO GCG PACKAGE FOR TRANSPORT TIME STEP  11 IN FLOW TIME STEP   4 STRESS PERIOD   2
    19 TOTAL ITERATIONS
0WARNING: NUMERICAL OSCILLATION ENCOUNTERED
 ONE OR MORE CELL CONCENTRATIONS LESS THAN CRHOREF
 SMALLEST DENSITY =  0.100E+04
 AT CELL (I,J,K) = (   2,  66,  18)

 
 SOLVING FOR HEAD 
 FLOW MODEL IS TRANSIENT
 FLOW MODEL CONTAINS CONSTANT-HEAD CELLS


 MAXIMUM STEPSIZE DURING WHICH ANY PARTICLE CANNOT MOVE MORE THAN ONE CELL
 = 0.1189    (WHEN MIN. R.F.=1)  AT K=   3, I=   2, J=  33

 MAXIMUM STEPSIZE WHICH MEETS STABILITY CRITERION OF THE ADVECTION TERM
 (FOR PURE FINITE-DIFFERENCE OPTION, MIXELM=0) 
 = 0.8147E-01(WHEN MIN. R.F.=1)  AT K=   3, I=   2, J=  32


 TOTAL NUMBER OF POINT SOURCES/SINKS PRESENT IN THE FLOW MODEL =   240

 MAXIMUM STEPSIZE WHICH MEETS STABILITY CRITERION OF THE SINK & SOURCE TERM
 = 0.1000E+31(WHEN MIN. R.F.=1)  AT K=   0, I=   0, J=   0

 MAXIMUM STEPSIZE WHICH MEETS STABILITY CRITERION OF THE DISPERSION TERM
 = 0.5612E-02(WHEN MIN. R.F.=1)  AT K=   3, I=   2, J=  32
     1 CALLS TO GCG PACKAGE FOR TRANSPORT TIME STEP  12 IN FLOW TIME STEP   4 STRESS PERIOD   2
    10 TOTAL ITERATIONS
  MAXIMUM CONCENTRATION CHANGES FOR EACH ITERATION:
  MAX. CHANGE LAYER,ROW,COL MAX. CHANGE LAYER,ROW,COL MAX. CHANGE LAYER,ROW,COL MAX. CHANGE LAYER,ROW,COL MAX. CHANGE LAYER,ROW,COL
 ------------------------------------------------------------------------------------------------------------------------------------
   0.1814E-02 (  8,  3, 51)  0.3552E-03 (  6,  2, 57)  0.1102E-03 (  4,  2, 33)  0.6441E-04 (  3,  2, 33)  0.2821E-04 (  4,  2, 33)
   0.9811E-05 (  3,  2, 33)  0.2962E-05 (  3,  2, 34)  0.9464E-06 (  2,  2, 34)  0.2575E-06 (  3,  2, 34)  0.6791E-07 (  3,  3, 32)
0WARNING: NUMERICAL OSCILLATION ENCOUNTERED
 ONE OR MORE CELL CONCENTRATIONS LESS THAN CRHOREF
 SMALLEST DENSITY =  0.100E+04
 AT CELL (I,J,K) = (   2,  66,  18)



                                          ================================================
                                                         FROM TIME =   5.0000     TO    6.0000    

 
 SOLVING FOR HEAD 
 FLOW MODEL IS TRANSIENT
 FLOW MODEL CONTAINS CONSTANT-HEAD CELLS


 MAXIMUM STEPSIZE DURING WHICH ANY PARTICLE CANNOT MOVE MORE THAN ONE CELL
 = 0.1189    (WHEN MIN. R.F.=1)  AT K=   3, I=   2, J=  33

 MAXIMUM STEPSIZE WHICH MEETS STABILITY CRITERION OF THE ADVECTION TERM
 (FOR PURE FINITE-DIFFERENCE OPTION, MIXELM=0) 
 = 0.8147E-01(WHEN MIN. R.F.=1)  AT K=   3, I=   2, J=  32


 TOTAL NUMBER OF POINT SOURCES/SINKS PRESENT IN THE FLOW MODEL =   240

 MAXIMUM STEPSIZE WHICH MEETS STABILITY CRITERION OF THE SINK & SOURCE TERM
 = 0.1000E+31(WHEN MIN. R.F.=1)  AT K=   0, I=   0, J=   0

 MAXIMUM STEPSIZE WHICH MEETS STABILITY CRITERION OF THE DISPERSION TERM
 = 0.5612E-02(WHEN MIN. R.F.=1)  AT K=   3, I=   2, J=  32


     1 CALLS TO GCG PACKAGE FOR TRANSPORT TIME STEP   1 IN FLOW TIME STEP   5 STRESS PERIOD   2
    19 TOTAL ITERATIONS

 NO OUTPUT CONTROL FOR STRESS PERIOD    2   TIME STEP   5
0WARNING: NUMERICAL OSCILLATION ENCOUNTERED
 ONE OR MORE CELL CONCENTRATIONS LESS THAN CRHOREF
 SMALLEST DENSITY =  0.100E+04
 AT CELL (I,J,K) = (   2,  66,  18)

 
 SOLVING FOR HEAD 
 FLOW MODEL IS TRANSIENT
 FLOW MODEL CONTAINS CONSTANT-HEAD CELLS


 MAXIMUM STEPSIZE DURING WHICH ANY PARTICLE CANNOT MOVE MORE THAN ONE CELL
 = 0.1189    (WHEN MIN. R.F.=1)  AT K=   3, I=   2, J=  33

 MAXIMUM STEPSIZE WHICH MEETS STABILITY CRITERION OF THE ADVECTION TERM
 (FOR PURE FINITE-DIFFERENCE OPTION, MIXELM=0) 
 = 0.8147E-01(WHEN MIN. R.F.=1)  AT K=   3, I=   2, J=  32


 TOTAL NUMBER OF POINT SOURCES/SINKS PRESENT IN THE FLOW MODEL =   240

 MAXIMUM STEPSIZE WHICH MEETS STABILITY CRITERION OF THE SINK & SOURCE TERM
 = 0.1000E+31(WHEN MIN. R.F.=1)  AT K=   0, I=   0, J=   0

 MAXIMUM STEPSIZE WHICH MEETS STABILITY CRITERION OF THE DISPERSION TERM
 = 0.5613E-02(WHEN MIN. R.F.=1)  AT K=   3, I=   2, J=  32
     1 CALLS TO GCG PACKAGE FOR TRANSPORT TIME STEP   2 IN FLOW TIME STEP   5 STRESS PERIOD   2
    19 TOTAL ITERATIONS
0WARNING: NUMERICAL OSCILLATION ENCOUNTERED
 ONE OR MORE CELL CONCENTRATIONS LESS THAN CRHOREF
 SMALLEST DENSITY =  0.100E+04
 AT CELL (I,J,K) = (   2,  66,  18)

 
 SOLVING FOR HEAD 
 FLOW MODEL IS TRANSIENT
 FLOW MODEL CONTAINS CONSTANT-HEAD CELLS


 MAXIMUM STEPSIZE DURING WHICH ANY PARTICLE CANNOT MOVE MORE THAN ONE CELL
 = 0.1189    (WHEN MIN. R.F.=1)  AT K=   3, I=   2, J=  33

 MAXIMUM STEPSIZE WHICH MEETS STABILITY CRITERION OF THE ADVECTION TERM
 (FOR PURE FINITE-DIFFERENCE OPTION, MIXELM=0) 
 = 0.8148E-01(WHEN MIN. R.F.=1)  AT K=   3, I=   2, J=  32


 TOTAL NUMBER OF POINT SOURCES/SINKS PRESENT IN THE FLOW MODEL =   240

 MAXIMUM STEPSIZE WHICH MEETS STABILITY CRITERION OF THE SINK & SOURCE TERM
 = 0.1000E+31(WHEN MIN. R.F.=1)  AT K=   0, I=   0, J=   0

 MAXIMUM STEPSIZE WHICH MEETS STABILITY CRITERION OF THE DISPERSION TERM
 = 0.5613E-02(WHEN MIN. R.F.=1)  AT K=   3, I=   2, J=  32
     1 CALLS TO GCG PACKAGE FOR TRANSPORT TIME STEP   3 IN FLOW TIME STEP   5 STRESS PERIOD   2
    19 TOTAL ITERATIONS
0WARNING: NUMERICAL OSCILLATION ENCOUNTERED
 ONE OR MORE CELL CONCENTRATIONS LESS THAN CRHOREF
 SMALLEST DENSITY =  0.100E+04
 AT CELL (I,J,K) = (   2,  66,  18)

 
 SOLVING FOR HEAD 
 FLOW MODEL IS TRANSIENT
 FLOW MODEL CONTAINS CONSTANT-HEAD CELLS


 MAXIMUM STEPSIZE DURING WHICH ANY PARTICLE CANNOT MOVE MORE THAN ONE CELL
 = 0.1189    (WHEN MIN. R.F.=1)  AT K=   3, I=   2, J=  33

 MAXIMUM STEPSIZE WHICH MEETS STABILITY CRITERION OF THE ADVECTION TERM
 (FOR PURE FINITE-DIFFERENCE OPTION, MIXELM=0) 
 = 0.8149E-01(WHEN MIN. R.F.=1)  AT K=   3, I=   2, J=  32


 TOTAL NUMBER OF POINT SOURCES/SINKS PRESENT IN THE FLOW MODEL =   240

 MAXIMUM STEPSIZE WHICH MEETS STABILITY CRITERION OF THE SINK & SOURCE TERM
 = 0.1000E+31(WHEN MIN. R.F.=1)  AT K=   0, I=   0, J=   0

 MAXIMUM STEPSIZE WHICH MEETS STABILITY CRITERION OF THE DISPERSION TERM
 = 0.5614E-02(WHEN MIN. R.F.=1)  AT K=   3, I=   2, J=  32
     1 CALLS TO GCG PACKAGE FOR TRANSPORT TIME STEP   4 IN FLOW TIME STEP   5 STRESS PERIOD   2
    19 TOTAL ITERATIONS
0WARNING: NUMERICAL OSCILLATION ENCOUNTERED
 ONE OR MORE CELL CONCENTRATIONS LESS THAN CRHOREF
 SMALLEST DENSITY =  0.100E+04
 AT CELL (I,J,K) = (   2,  66,  18)

 
 SOLVING FOR HEAD 
 FLOW MODEL IS TRANSIENT
 FLOW MODEL CONTAINS CONSTANT-HEAD CELLS


 MAXIMUM STEPSIZE DURING WHICH ANY PARTICLE CANNOT MOVE MORE THAN ONE CELL
 = 0.1189    (WHEN MIN. R.F.=1)  AT K=   3, I=   2, J=  33

 MAXIMUM STEPSIZE WHICH MEETS STABILITY CRITERION OF THE ADVECTION TERM
 (FOR PURE FINITE-DIFFERENCE OPTION, MIXELM=0) 
 = 0.8149E-01(WHEN MIN. R.F.=1)  AT K=   3, I=   2, J=  32


 TOTAL NUMBER OF POINT SOURCES/SINKS PRESENT IN THE FLOW MODEL =   240

 MAXIMUM STEPSIZE WHICH MEETS STABILITY CRITERION OF THE SINK & SOURCE TERM
 = 0.1000E+31(WHEN MIN. R.F.=1)  AT K=   0, I=   0, J=   0

 MAXIMUM STEPSIZE WHICH MEETS STABILITY CRITERION OF THE DISPERSION TERM
 = 0.5614E-02(WHEN MIN. R.F.=1)  AT K=   3, I=   2, J=  32
     1 CALLS TO GCG PACKAGE FOR TRANSPORT TIME STEP   5 IN FLOW TIME STEP   5 STRESS PERIOD   2
    19 TOTAL ITERATIONS
0WARNING: NUMERICAL OSCILLATION ENCOUNTERED
 ONE OR MORE CELL CONCENTRATIONS LESS THAN CRHOREF
 SMALLEST DENSITY =  0.100E+04
 AT CELL (I,J,K) = (   2,  67,  18)

 
 SOLVING FOR HEAD 
 FLOW MODEL IS TRANSIENT
 FLOW MODEL CONTAINS CONSTANT-HEAD CELLS


 MAXIMUM STEPSIZE DURING WHICH ANY PARTICLE CANNOT MOVE MORE THAN ONE CELL
 = 0.1190    (WHEN MIN. R.F.=1)  AT K=   3, I=   2, J=  33

 MAXIMUM STEPSIZE WHICH MEETS STABILITY CRITERION OF THE ADVECTION TERM
 (FOR PURE FINITE-DIFFERENCE OPTION, MIXELM=0) 
 = 0.8150E-01(WHEN MIN. R.F.=1)  AT K=   3, I=   2, J=  32


 TOTAL NUMBER OF POINT SOURCES/SINKS PRESENT IN THE FLOW MODEL =   240

 MAXIMUM STEPSIZE WHICH MEETS STABILITY CRITERION OF THE SINK & SOURCE TERM
 = 0.1000E+31(WHEN MIN. R.F.=1)  AT K=   0, I=   0, J=   0

 MAXIMUM STEPSIZE WHICH MEETS STABILITY CRITERION OF THE DISPERSION TERM
 = 0.5614E-02(WHEN MIN. R.F.=1)  AT K=   3, I=   2, J=  32
     1 CALLS TO GCG PACKAGE FOR TRANSPORT TIME STEP   6 IN FLOW TIME STEP   5 STRESS PERIOD   2
    19 TOTAL ITERATIONS
0WARNING: NUMERICAL OSCILLATION ENCOUNTERED
 ONE OR MORE CELL CONCENTRATIONS LESS THAN CRHOREF
 SMALLEST DENSITY =  0.100E+04
 AT CELL (I,J,K) = (   2,  67,  18)

 
 SOLVING FOR HEAD 
 FLOW MODEL IS TRANSIENT
 FLOW MODEL CONTAINS CONSTANT-HEAD CELLS


 MAXIMUM STEPSIZE DURING WHICH ANY PARTICLE CANNOT MOVE MORE THAN ONE CELL
 = 0.1190    (WHEN MIN. R.F.=1)  AT K=   3, I=   2, J=  33

 MAXIMUM STEPSIZE WHICH MEETS STABILITY CRITERION OF THE ADVECTION TERM
 (FOR PURE FINITE-DIFFERENCE OPTION, MIXELM=0) 
 = 0.8150E-01(WHEN MIN. R.F.=1)  AT K=   3, I=   2, J=  32


 TOTAL NUMBER OF POINT SOURCES/SINKS PRESENT IN THE FLOW MODEL =   240

 MAXIMUM STEPSIZE WHICH MEETS STABILITY CRITERION OF THE SINK & SOURCE TERM
 = 0.1000E+31(WHEN MIN. R.F.=1)  AT K=   0, I=   0, J=   0

 MAXIMUM STEPSIZE WHICH MEETS STABILITY CRITERION OF THE DISPERSION TERM
 = 0.5615E-02(WHEN MIN. R.F.=1)  AT K=   3, I=   2, J=  32
     1 CALLS TO GCG PACKAGE FOR TRANSPORT TIME STEP   7 IN FLOW TIME STEP   5 STRESS PERIOD   2
    19 TOTAL ITERATIONS
0WARNING: NUMERICAL OSCILLATION ENCOUNTERED
 ONE OR MORE CELL CONCENTRATIONS LESS THAN CRHOREF
 SMALLEST DENSITY =  0.100E+04
 AT CELL (I,J,K) = (   2,  67,  18)

 
 SOLVING FOR HEAD 
 FLOW MODEL IS TRANSIENT
 FLOW MODEL CONTAINS CONSTANT-HEAD CELLS


 MAXIMUM STEPSIZE DURING WHICH ANY PARTICLE CANNOT MOVE MORE THAN ONE CELL
 = 0.1190    (WHEN MIN. R.F.=1)  AT K=   3, I=   2, J=  33

 MAXIMUM STEPSIZE WHICH MEETS STABILITY CRITERION OF THE ADVECTION TERM
 (FOR PURE FINITE-DIFFERENCE OPTION, MIXELM=0) 
 = 0.8151E-01(WHEN MIN. R.F.=1)  AT K=   3, I=   2, J=  32


 TOTAL NUMBER OF POINT SOURCES/SINKS PRESENT IN THE FLOW MODEL =   240

 MAXIMUM STEPSIZE WHICH MEETS STABILITY CRITERION OF THE SINK & SOURCE TERM
 = 0.1000E+31(WHEN MIN. R.F.=1)  AT K=   0, I=   0, J=   0

 MAXIMUM STEPSIZE WHICH MEETS STABILITY CRITERION OF THE DISPERSION TERM
 = 0.5615E-02(WHEN MIN. R.F.=1)  AT K=   3, I=   2, J=  32
     1 CALLS TO GCG PACKAGE FOR TRANSPORT TIME STEP   8 IN FLOW TIME STEP   5 STRESS PERIOD   2
    19 TOTAL ITERATIONS
0WARNING: NUMERICAL OSCILLATION ENCOUNTERED
 ONE OR MORE CELL CONCENTRATIONS LESS THAN CRHOREF
 SMALLEST DENSITY =  0.100E+04
 AT CELL (I,J,K) = (   2,  67,  18)

 
 SOLVING FOR HEAD 
 FLOW MODEL IS TRANSIENT
 FLOW MODEL CONTAINS CONSTANT-HEAD CELLS


 MAXIMUM STEPSIZE DURING WHICH ANY PARTICLE CANNOT MOVE MORE THAN ONE CELL
 = 0.1190    (WHEN MIN. R.F.=1)  AT K=   3, I=   2, J=  33

 MAXIMUM STEPSIZE WHICH MEETS STABILITY CRITERION OF THE ADVECTION TERM
 (FOR PURE FINITE-DIFFERENCE OPTION, MIXELM=0) 
 = 0.8151E-01(WHEN MIN. R.F.=1)  AT K=   3, I=   2, J=  32


 TOTAL NUMBER OF POINT SOURCES/SINKS PRESENT IN THE FLOW MODEL =   240

 MAXIMUM STEPSIZE WHICH MEETS STABILITY CRITERION OF THE SINK & SOURCE TERM
 = 0.1000E+31(WHEN MIN. R.F.=1)  AT K=   0, I=   0, J=   0

 MAXIMUM STEPSIZE WHICH MEETS STABILITY CRITERION OF THE DISPERSION TERM
 = 0.5615E-02(WHEN MIN. R.F.=1)  AT K=   3, I=   2, J=  32
     1 CALLS TO GCG PACKAGE FOR TRANSPORT TIME STEP   9 IN FLOW TIME STEP   5 STRESS PERIOD   2
    19 TOTAL ITERATIONS
0WARNING: NUMERICAL OSCILLATION ENCOUNTERED
 ONE OR MORE CELL CONCENTRATIONS LESS THAN CRHOREF
 SMALLEST DENSITY =  0.100E+04
 AT CELL (I,J,K) = (   2,  67,  18)

 
 SOLVING FOR HEAD 
 FLOW MODEL IS TRANSIENT
 FLOW MODEL CONTAINS CONSTANT-HEAD CELLS


 MAXIMUM STEPSIZE DURING WHICH ANY PARTICLE CANNOT MOVE MORE THAN ONE CELL
 = 0.1190    (WHEN MIN. R.F.=1)  AT K=   3, I=   2, J=  33

 MAXIMUM STEPSIZE WHICH MEETS STABILITY CRITERION OF THE ADVECTION TERM
 (FOR PURE FINITE-DIFFERENCE OPTION, MIXELM=0) 
 = 0.8152E-01(WHEN MIN. R.F.=1)  AT K=   3, I=   2, J=  32


 TOTAL NUMBER OF POINT SOURCES/SINKS PRESENT IN THE FLOW MODEL =   240

 MAXIMUM STEPSIZE WHICH MEETS STABILITY CRITERION OF THE SINK & SOURCE TERM
 = 0.1000E+31(WHEN MIN. R.F.=1)  AT K=   0, I=   0, J=   0

 MAXIMUM STEPSIZE WHICH MEETS STABILITY CRITERION OF THE DISPERSION TERM
 = 0.5616E-02(WHEN MIN. R.F.=1)  AT K=   3, I=   2, J=  32
     1 CALLS TO GCG PACKAGE FOR TRANSPORT TIME STEP  10 IN FLOW TIME STEP   5 STRESS PERIOD   2
    19 TOTAL ITERATIONS



 >>>>>>>>>>>>>>>>>>>>>>>>>>>>>>>>>>>>>>>>>>>>>>>>>>>>>>>FOR COMPONENT NO. 01<<<<<<<<<<<<<<<<<<<<<<<<<<<<<<<<<<<<<<<<<<<<<<<<<<<<<<<


                                            -------------------------------------------
                                                      TRANSPORT STEP NO.   10
                                            -------------------------------------------

 TOTAL ELAPSED TIME SINCE BEGINNING OF SIMULATION =   5.892027    D   
 .....................................................................

                     CUMULATIVE MASS BUDGETS AT END OF TRANSPORT STEP   10, TIME STEP    5, STRESS PERIOD    2
                     ------------------------------------------------------------------------------------------

                                                             IN                           OUT
                                                      ----------------             ----------------
                               CONSTANT CONCENTRATION:    2146.028                   -322.6087    
                                        CONSTANT HEAD:    0.000000                    0.000000    
                               MASS STOR (FLOW MODEL):   0.1186850E-01              -0.1904842E-02
                                MASS STORAGE (SOLUTE):   0.5619788E-06               -1823.429    
                            ---------------------------------------------------------------------------
                                              [TOTAL]:    2146.040     KG            -2146.040     KG  

                                                          NET (IN - OUT):  -0.7655335E-04
                                                   DISCREPANCY (PERCENT):  -0.3567192E-05
0WARNING: NUMERICAL OSCILLATION ENCOUNTERED
 ONE OR MORE CELL CONCENTRATIONS LESS THAN CRHOREF
 SMALLEST DENSITY =  0.100E+04
 AT CELL (I,J,K) = (   2,  67,  18)

 
 SOLVING FOR HEAD 
 FLOW MODEL IS TRANSIENT
 FLOW MODEL CONTAINS CONSTANT-HEAD CELLS


 MAXIMUM STEPSIZE DURING WHICH ANY PARTICLE CANNOT MOVE MORE THAN ONE CELL
 = 0.1190    (WHEN MIN. R.F.=1)  AT K=   3, I=   2, J=  33

 MAXIMUM STEPSIZE WHICH MEETS STABILITY CRITERION OF THE ADVECTION TERM
 (FOR PURE FINITE-DIFFERENCE OPTION, MIXELM=0) 
 = 0.8152E-01(WHEN MIN. R.F.=1)  AT K=   3, I=   2, J=  32


 TOTAL NUMBER OF POINT SOURCES/SINKS PRESENT IN THE FLOW MODEL =   240

 MAXIMUM STEPSIZE WHICH MEETS STABILITY CRITERION OF THE SINK & SOURCE TERM
 = 0.1000E+31(WHEN MIN. R.F.=1)  AT K=   0, I=   0, J=   0

 MAXIMUM STEPSIZE WHICH MEETS STABILITY CRITERION OF THE DISPERSION TERM
 = 0.5616E-02(WHEN MIN. R.F.=1)  AT K=   3, I=   2, J=  32
     1 CALLS TO GCG PACKAGE FOR TRANSPORT TIME STEP  11 IN FLOW TIME STEP   5 STRESS PERIOD   2
    19 TOTAL ITERATIONS
0WARNING: NUMERICAL OSCILLATION ENCOUNTERED
 ONE OR MORE CELL CONCENTRATIONS LESS THAN CRHOREF
 SMALLEST DENSITY =  0.100E+04
 AT CELL (I,J,K) = (   2,  67,  18)

 
 SOLVING FOR HEAD 
 FLOW MODEL IS TRANSIENT
 FLOW MODEL CONTAINS CONSTANT-HEAD CELLS


 MAXIMUM STEPSIZE DURING WHICH ANY PARTICLE CANNOT MOVE MORE THAN ONE CELL
 = 0.1190    (WHEN MIN. R.F.=1)  AT K=   3, I=   2, J=  33

 MAXIMUM STEPSIZE WHICH MEETS STABILITY CRITERION OF THE ADVECTION TERM
 (FOR PURE FINITE-DIFFERENCE OPTION, MIXELM=0) 
 = 0.8152E-01(WHEN MIN. R.F.=1)  AT K=   3, I=   2, J=  32


 TOTAL NUMBER OF POINT SOURCES/SINKS PRESENT IN THE FLOW MODEL =   240

 MAXIMUM STEPSIZE WHICH MEETS STABILITY CRITERION OF THE SINK & SOURCE TERM
 = 0.1000E+31(WHEN MIN. R.F.=1)  AT K=   0, I=   0, J=   0

 MAXIMUM STEPSIZE WHICH MEETS STABILITY CRITERION OF THE DISPERSION TERM
 = 0.5616E-02(WHEN MIN. R.F.=1)  AT K=   3, I=   2, J=  32
     1 CALLS TO GCG PACKAGE FOR TRANSPORT TIME STEP  12 IN FLOW TIME STEP   5 STRESS PERIOD   2
    10 TOTAL ITERATIONS
  MAXIMUM CONCENTRATION CHANGES FOR EACH ITERATION:
  MAX. CHANGE LAYER,ROW,COL MAX. CHANGE LAYER,ROW,COL MAX. CHANGE LAYER,ROW,COL MAX. CHANGE LAYER,ROW,COL MAX. CHANGE LAYER,ROW,COL
 ------------------------------------------------------------------------------------------------------------------------------------
   0.1426E-02 (  8,  3, 52)  0.2728E-03 (  6,  2, 57)  0.7294E-04 (  4,  1, 36)  0.4206E-04 (  3,  2, 33)  0.1789E-04 (  4,  2, 33)
   0.6148E-05 (  3,  2, 33)  0.1761E-05 (  3,  2, 34)  0.5567E-06 (  2,  2, 34)  0.1490E-06 (  3,  2, 34)  0.3783E-07 (  3,  3, 32)
0WARNING: NUMERICAL OSCILLATION ENCOUNTERED
 ONE OR MORE CELL CONCENTRATIONS LESS THAN CRHOREF
 SMALLEST DENSITY =  0.100E+04
 AT CELL (I,J,K) = (   2,  67,  18)



                                          ================================================
                                                         FROM TIME =   6.0000     TO    7.0000    

 
 SOLVING FOR HEAD 
 FLOW MODEL IS TRANSIENT
 FLOW MODEL CONTAINS CONSTANT-HEAD CELLS


 MAXIMUM STEPSIZE DURING WHICH ANY PARTICLE CANNOT MOVE MORE THAN ONE CELL
 = 0.1190    (WHEN MIN. R.F.=1)  AT K=   3, I=   2, J=  33

 MAXIMUM STEPSIZE WHICH MEETS STABILITY CRITERION OF THE ADVECTION TERM
 (FOR PURE FINITE-DIFFERENCE OPTION, MIXELM=0) 
 = 0.8152E-01(WHEN MIN. R.F.=1)  AT K=   3, I=   2, J=  32


 TOTAL NUMBER OF POINT SOURCES/SINKS PRESENT IN THE FLOW MODEL =   240

 MAXIMUM STEPSIZE WHICH MEETS STABILITY CRITERION OF THE SINK & SOURCE TERM
 = 0.1000E+31(WHEN MIN. R.F.=1)  AT K=   0, I=   0, J=   0

 MAXIMUM STEPSIZE WHICH MEETS STABILITY CRITERION OF THE DISPERSION TERM
 = 0.5616E-02(WHEN MIN. R.F.=1)  AT K=   3, I=   2, J=  32


     1 CALLS TO GCG PACKAGE FOR TRANSPORT TIME STEP   1 IN FLOW TIME STEP   6 STRESS PERIOD   2
    19 TOTAL ITERATIONS

 NO OUTPUT CONTROL FOR STRESS PERIOD    2   TIME STEP   6
0WARNING: NUMERICAL OSCILLATION ENCOUNTERED
 ONE OR MORE CELL CONCENTRATIONS LESS THAN CRHOREF
 SMALLEST DENSITY =  0.100E+04
 AT CELL (I,J,K) = (   2,  67,  18)

 
 SOLVING FOR HEAD 
 FLOW MODEL IS TRANSIENT
 FLOW MODEL CONTAINS CONSTANT-HEAD CELLS


 MAXIMUM STEPSIZE DURING WHICH ANY PARTICLE CANNOT MOVE MORE THAN ONE CELL
 = 0.1190    (WHEN MIN. R.F.=1)  AT K=   3, I=   2, J=  33

 MAXIMUM STEPSIZE WHICH MEETS STABILITY CRITERION OF THE ADVECTION TERM
 (FOR PURE FINITE-DIFFERENCE OPTION, MIXELM=0) 
 = 0.8153E-01(WHEN MIN. R.F.=1)  AT K=   3, I=   2, J=  32


 TOTAL NUMBER OF POINT SOURCES/SINKS PRESENT IN THE FLOW MODEL =   240

 MAXIMUM STEPSIZE WHICH MEETS STABILITY CRITERION OF THE SINK & SOURCE TERM
 = 0.1000E+31(WHEN MIN. R.F.=1)  AT K=   0, I=   0, J=   0

 MAXIMUM STEPSIZE WHICH MEETS STABILITY CRITERION OF THE DISPERSION TERM
 = 0.5617E-02(WHEN MIN. R.F.=1)  AT K=   3, I=   2, J=  32
     1 CALLS TO GCG PACKAGE FOR TRANSPORT TIME STEP   2 IN FLOW TIME STEP   6 STRESS PERIOD   2
    19 TOTAL ITERATIONS
0WARNING: NUMERICAL OSCILLATION ENCOUNTERED
 ONE OR MORE CELL CONCENTRATIONS LESS THAN CRHOREF
 SMALLEST DENSITY =  0.100E+04
 AT CELL (I,J,K) = (   2,  67,  18)

 
 SOLVING FOR HEAD 
 FLOW MODEL IS TRANSIENT
 FLOW MODEL CONTAINS CONSTANT-HEAD CELLS


 MAXIMUM STEPSIZE DURING WHICH ANY PARTICLE CANNOT MOVE MORE THAN ONE CELL
 = 0.1190    (WHEN MIN. R.F.=1)  AT K=   3, I=   2, J=  33

 MAXIMUM STEPSIZE WHICH MEETS STABILITY CRITERION OF THE ADVECTION TERM
 (FOR PURE FINITE-DIFFERENCE OPTION, MIXELM=0) 
 = 0.8153E-01(WHEN MIN. R.F.=1)  AT K=   3, I=   2, J=  32


 TOTAL NUMBER OF POINT SOURCES/SINKS PRESENT IN THE FLOW MODEL =   240

 MAXIMUM STEPSIZE WHICH MEETS STABILITY CRITERION OF THE SINK & SOURCE TERM
 = 0.1000E+31(WHEN MIN. R.F.=1)  AT K=   0, I=   0, J=   0

 MAXIMUM STEPSIZE WHICH MEETS STABILITY CRITERION OF THE DISPERSION TERM
 = 0.5617E-02(WHEN MIN. R.F.=1)  AT K=   3, I=   2, J=  32
     1 CALLS TO GCG PACKAGE FOR TRANSPORT TIME STEP   3 IN FLOW TIME STEP   6 STRESS PERIOD   2
    18 TOTAL ITERATIONS
0WARNING: NUMERICAL OSCILLATION ENCOUNTERED
 ONE OR MORE CELL CONCENTRATIONS LESS THAN CRHOREF
 SMALLEST DENSITY =  0.100E+04
 AT CELL (I,J,K) = (   2,  67,  18)

 
 SOLVING FOR HEAD 
 FLOW MODEL IS TRANSIENT
 FLOW MODEL CONTAINS CONSTANT-HEAD CELLS


 MAXIMUM STEPSIZE DURING WHICH ANY PARTICLE CANNOT MOVE MORE THAN ONE CELL
 = 0.1190    (WHEN MIN. R.F.=1)  AT K=   3, I=   2, J=  33

 MAXIMUM STEPSIZE WHICH MEETS STABILITY CRITERION OF THE ADVECTION TERM
 (FOR PURE FINITE-DIFFERENCE OPTION, MIXELM=0) 
 = 0.8153E-01(WHEN MIN. R.F.=1)  AT K=   3, I=   2, J=  32


 TOTAL NUMBER OF POINT SOURCES/SINKS PRESENT IN THE FLOW MODEL =   240

 MAXIMUM STEPSIZE WHICH MEETS STABILITY CRITERION OF THE SINK & SOURCE TERM
 = 0.1000E+31(WHEN MIN. R.F.=1)  AT K=   0, I=   0, J=   0

 MAXIMUM STEPSIZE WHICH MEETS STABILITY CRITERION OF THE DISPERSION TERM
 = 0.5617E-02(WHEN MIN. R.F.=1)  AT K=   3, I=   2, J=  32
     1 CALLS TO GCG PACKAGE FOR TRANSPORT TIME STEP   4 IN FLOW TIME STEP   6 STRESS PERIOD   2
    18 TOTAL ITERATIONS
0WARNING: NUMERICAL OSCILLATION ENCOUNTERED
 ONE OR MORE CELL CONCENTRATIONS LESS THAN CRHOREF
 SMALLEST DENSITY =  0.100E+04
 AT CELL (I,J,K) = (   2,  67,  18)

 
 SOLVING FOR HEAD 
 FLOW MODEL IS TRANSIENT
 FLOW MODEL CONTAINS CONSTANT-HEAD CELLS


 MAXIMUM STEPSIZE DURING WHICH ANY PARTICLE CANNOT MOVE MORE THAN ONE CELL
 = 0.1190    (WHEN MIN. R.F.=1)  AT K=   3, I=   2, J=  33

 MAXIMUM STEPSIZE WHICH MEETS STABILITY CRITERION OF THE ADVECTION TERM
 (FOR PURE FINITE-DIFFERENCE OPTION, MIXELM=0) 
 = 0.8154E-01(WHEN MIN. R.F.=1)  AT K=   3, I=   2, J=  32


 TOTAL NUMBER OF POINT SOURCES/SINKS PRESENT IN THE FLOW MODEL =   240

 MAXIMUM STEPSIZE WHICH MEETS STABILITY CRITERION OF THE SINK & SOURCE TERM
 = 0.1000E+31(WHEN MIN. R.F.=1)  AT K=   0, I=   0, J=   0

 MAXIMUM STEPSIZE WHICH MEETS STABILITY CRITERION OF THE DISPERSION TERM
 = 0.5617E-02(WHEN MIN. R.F.=1)  AT K=   3, I=   2, J=  32
     1 CALLS TO GCG PACKAGE FOR TRANSPORT TIME STEP   5 IN FLOW TIME STEP   6 STRESS PERIOD   2
    18 TOTAL ITERATIONS
0WARNING: NUMERICAL OSCILLATION ENCOUNTERED
 ONE OR MORE CELL CONCENTRATIONS LESS THAN CRHOREF
 SMALLEST DENSITY =  0.100E+04
 AT CELL (I,J,K) = (   3,  68,  18)

 
 SOLVING FOR HEAD 
 FLOW MODEL IS TRANSIENT
 FLOW MODEL CONTAINS CONSTANT-HEAD CELLS


 MAXIMUM STEPSIZE DURING WHICH ANY PARTICLE CANNOT MOVE MORE THAN ONE CELL
 = 0.1190    (WHEN MIN. R.F.=1)  AT K=   3, I=   2, J=  33

 MAXIMUM STEPSIZE WHICH MEETS STABILITY CRITERION OF THE ADVECTION TERM
 (FOR PURE FINITE-DIFFERENCE OPTION, MIXELM=0) 
 = 0.8154E-01(WHEN MIN. R.F.=1)  AT K=   3, I=   2, J=  32


 TOTAL NUMBER OF POINT SOURCES/SINKS PRESENT IN THE FLOW MODEL =   240

 MAXIMUM STEPSIZE WHICH MEETS STABILITY CRITERION OF THE SINK & SOURCE TERM
 = 0.1000E+31(WHEN MIN. R.F.=1)  AT K=   0, I=   0, J=   0

 MAXIMUM STEPSIZE WHICH MEETS STABILITY CRITERION OF THE DISPERSION TERM
 = 0.5617E-02(WHEN MIN. R.F.=1)  AT K=   3, I=   2, J=  32
     1 CALLS TO GCG PACKAGE FOR TRANSPORT TIME STEP   6 IN FLOW TIME STEP   6 STRESS PERIOD   2
    18 TOTAL ITERATIONS
0WARNING: NUMERICAL OSCILLATION ENCOUNTERED
 ONE OR MORE CELL CONCENTRATIONS LESS THAN CRHOREF
 SMALLEST DENSITY =  0.100E+04
 AT CELL (I,J,K) = (   3,  68,  18)

 
 SOLVING FOR HEAD 
 FLOW MODEL IS TRANSIENT
 FLOW MODEL CONTAINS CONSTANT-HEAD CELLS


 MAXIMUM STEPSIZE DURING WHICH ANY PARTICLE CANNOT MOVE MORE THAN ONE CELL
 = 0.1190    (WHEN MIN. R.F.=1)  AT K=   3, I=   2, J=  33

 MAXIMUM STEPSIZE WHICH MEETS STABILITY CRITERION OF THE ADVECTION TERM
 (FOR PURE FINITE-DIFFERENCE OPTION, MIXELM=0) 
 = 0.8154E-01(WHEN MIN. R.F.=1)  AT K=   3, I=   2, J=  32


 TOTAL NUMBER OF POINT SOURCES/SINKS PRESENT IN THE FLOW MODEL =   240

 MAXIMUM STEPSIZE WHICH MEETS STABILITY CRITERION OF THE SINK & SOURCE TERM
 = 0.1000E+31(WHEN MIN. R.F.=1)  AT K=   0, I=   0, J=   0

 MAXIMUM STEPSIZE WHICH MEETS STABILITY CRITERION OF THE DISPERSION TERM
 = 0.5618E-02(WHEN MIN. R.F.=1)  AT K=   3, I=   2, J=  32
     1 CALLS TO GCG PACKAGE FOR TRANSPORT TIME STEP   7 IN FLOW TIME STEP   6 STRESS PERIOD   2
    18 TOTAL ITERATIONS
0WARNING: NUMERICAL OSCILLATION ENCOUNTERED
 ONE OR MORE CELL CONCENTRATIONS LESS THAN CRHOREF
 SMALLEST DENSITY =  0.100E+04
 AT CELL (I,J,K) = (   3,  68,  18)

 
 SOLVING FOR HEAD 
 FLOW MODEL IS TRANSIENT
 FLOW MODEL CONTAINS CONSTANT-HEAD CELLS


 MAXIMUM STEPSIZE DURING WHICH ANY PARTICLE CANNOT MOVE MORE THAN ONE CELL
 = 0.1190    (WHEN MIN. R.F.=1)  AT K=   3, I=   2, J=  33

 MAXIMUM STEPSIZE WHICH MEETS STABILITY CRITERION OF THE ADVECTION TERM
 (FOR PURE FINITE-DIFFERENCE OPTION, MIXELM=0) 
 = 0.8155E-01(WHEN MIN. R.F.=1)  AT K=   3, I=   2, J=  32


 TOTAL NUMBER OF POINT SOURCES/SINKS PRESENT IN THE FLOW MODEL =   240

 MAXIMUM STEPSIZE WHICH MEETS STABILITY CRITERION OF THE SINK & SOURCE TERM
 = 0.1000E+31(WHEN MIN. R.F.=1)  AT K=   0, I=   0, J=   0

 MAXIMUM STEPSIZE WHICH MEETS STABILITY CRITERION OF THE DISPERSION TERM
 = 0.5618E-02(WHEN MIN. R.F.=1)  AT K=   3, I=   2, J=  32
     1 CALLS TO GCG PACKAGE FOR TRANSPORT TIME STEP   8 IN FLOW TIME STEP   6 STRESS PERIOD   2
    18 TOTAL ITERATIONS
0WARNING: NUMERICAL OSCILLATION ENCOUNTERED
 ONE OR MORE CELL CONCENTRATIONS LESS THAN CRHOREF
 SMALLEST DENSITY =  0.100E+04
 AT CELL (I,J,K) = (   3,  68,  18)

 
 SOLVING FOR HEAD 
 FLOW MODEL IS TRANSIENT
 FLOW MODEL CONTAINS CONSTANT-HEAD CELLS


 MAXIMUM STEPSIZE DURING WHICH ANY PARTICLE CANNOT MOVE MORE THAN ONE CELL
 = 0.1190    (WHEN MIN. R.F.=1)  AT K=   3, I=   2, J=  33

 MAXIMUM STEPSIZE WHICH MEETS STABILITY CRITERION OF THE ADVECTION TERM
 (FOR PURE FINITE-DIFFERENCE OPTION, MIXELM=0) 
 = 0.8155E-01(WHEN MIN. R.F.=1)  AT K=   3, I=   2, J=  32


 TOTAL NUMBER OF POINT SOURCES/SINKS PRESENT IN THE FLOW MODEL =   240

 MAXIMUM STEPSIZE WHICH MEETS STABILITY CRITERION OF THE SINK & SOURCE TERM
 = 0.1000E+31(WHEN MIN. R.F.=1)  AT K=   0, I=   0, J=   0

 MAXIMUM STEPSIZE WHICH MEETS STABILITY CRITERION OF THE DISPERSION TERM
 = 0.5618E-02(WHEN MIN. R.F.=1)  AT K=   3, I=   2, J=  32
     1 CALLS TO GCG PACKAGE FOR TRANSPORT TIME STEP   9 IN FLOW TIME STEP   6 STRESS PERIOD   2
    18 TOTAL ITERATIONS
0WARNING: NUMERICAL OSCILLATION ENCOUNTERED
 ONE OR MORE CELL CONCENTRATIONS LESS THAN CRHOREF
 SMALLEST DENSITY =  0.100E+04
 AT CELL (I,J,K) = (   3,  68,  18)

 
 SOLVING FOR HEAD 
 FLOW MODEL IS TRANSIENT
 FLOW MODEL CONTAINS CONSTANT-HEAD CELLS


 MAXIMUM STEPSIZE DURING WHICH ANY PARTICLE CANNOT MOVE MORE THAN ONE CELL
 = 0.1190    (WHEN MIN. R.F.=1)  AT K=   3, I=   2, J=  33

 MAXIMUM STEPSIZE WHICH MEETS STABILITY CRITERION OF THE ADVECTION TERM
 (FOR PURE FINITE-DIFFERENCE OPTION, MIXELM=0) 
 = 0.8155E-01(WHEN MIN. R.F.=1)  AT K=   3, I=   2, J=  32


 TOTAL NUMBER OF POINT SOURCES/SINKS PRESENT IN THE FLOW MODEL =   240

 MAXIMUM STEPSIZE WHICH MEETS STABILITY CRITERION OF THE SINK & SOURCE TERM
 = 0.1000E+31(WHEN MIN. R.F.=1)  AT K=   0, I=   0, J=   0

 MAXIMUM STEPSIZE WHICH MEETS STABILITY CRITERION OF THE DISPERSION TERM
 = 0.5618E-02(WHEN MIN. R.F.=1)  AT K=   3, I=   2, J=  32
     1 CALLS TO GCG PACKAGE FOR TRANSPORT TIME STEP  10 IN FLOW TIME STEP   6 STRESS PERIOD   2
    18 TOTAL ITERATIONS



 >>>>>>>>>>>>>>>>>>>>>>>>>>>>>>>>>>>>>>>>>>>>>>>>>>>>>>>FOR COMPONENT NO. 01<<<<<<<<<<<<<<<<<<<<<<<<<<<<<<<<<<<<<<<<<<<<<<<<<<<<<<<


                                            -------------------------------------------
                                                      TRANSPORT STEP NO.   10
                                            -------------------------------------------

 TOTAL ELAPSED TIME SINCE BEGINNING OF SIMULATION =   6.892565    D   
 .....................................................................

                     CUMULATIVE MASS BUDGETS AT END OF TRANSPORT STEP   10, TIME STEP    6, STRESS PERIOD    2
                     ------------------------------------------------------------------------------------------

                                                             IN                           OUT
                                                      ----------------             ----------------
                               CONSTANT CONCENTRATION:    2409.401                   -401.8886    
                                        CONSTANT HEAD:    0.000000                    0.000000    
                               MASS STOR (FLOW MODEL):   0.1186850E-01              -0.2087453E-02
                                MASS STORAGE (SOLUTE):   0.5620020E-06               -2007.522    
                            ---------------------------------------------------------------------------
                                              [TOTAL]:    2409.413     KG            -2409.413     KG  

                                                          NET (IN - OUT):  -0.1446213E-03
                                                   DISCREPANCY (PERCENT):  -0.6002345E-05
0WARNING: NUMERICAL OSCILLATION ENCOUNTERED
 ONE OR MORE CELL CONCENTRATIONS LESS THAN CRHOREF
 SMALLEST DENSITY =  0.100E+04
 AT CELL (I,J,K) = (   3,  68,  18)

 
 SOLVING FOR HEAD 
 FLOW MODEL IS TRANSIENT
 FLOW MODEL CONTAINS CONSTANT-HEAD CELLS


 MAXIMUM STEPSIZE DURING WHICH ANY PARTICLE CANNOT MOVE MORE THAN ONE CELL
 = 0.1190    (WHEN MIN. R.F.=1)  AT K=   3, I=   2, J=  33

 MAXIMUM STEPSIZE WHICH MEETS STABILITY CRITERION OF THE ADVECTION TERM
 (FOR PURE FINITE-DIFFERENCE OPTION, MIXELM=0) 
 = 0.8155E-01(WHEN MIN. R.F.=1)  AT K=   3, I=   2, J=  32


 TOTAL NUMBER OF POINT SOURCES/SINKS PRESENT IN THE FLOW MODEL =   240

 MAXIMUM STEPSIZE WHICH MEETS STABILITY CRITERION OF THE SINK & SOURCE TERM
 = 0.1000E+31(WHEN MIN. R.F.=1)  AT K=   0, I=   0, J=   0

 MAXIMUM STEPSIZE WHICH MEETS STABILITY CRITERION OF THE DISPERSION TERM
 = 0.5618E-02(WHEN MIN. R.F.=1)  AT K=   3, I=   2, J=  32
     1 CALLS TO GCG PACKAGE FOR TRANSPORT TIME STEP  11 IN FLOW TIME STEP   6 STRESS PERIOD   2
    18 TOTAL ITERATIONS
0WARNING: NUMERICAL OSCILLATION ENCOUNTERED
 ONE OR MORE CELL CONCENTRATIONS LESS THAN CRHOREF
 SMALLEST DENSITY =  0.100E+04
 AT CELL (I,J,K) = (   3,  68,  18)

 
 SOLVING FOR HEAD 
 FLOW MODEL IS TRANSIENT
 FLOW MODEL CONTAINS CONSTANT-HEAD CELLS


 MAXIMUM STEPSIZE DURING WHICH ANY PARTICLE CANNOT MOVE MORE THAN ONE CELL
 = 0.1190    (WHEN MIN. R.F.=1)  AT K=   3, I=   2, J=  33

 MAXIMUM STEPSIZE WHICH MEETS STABILITY CRITERION OF THE ADVECTION TERM
 (FOR PURE FINITE-DIFFERENCE OPTION, MIXELM=0) 
 = 0.8155E-01(WHEN MIN. R.F.=1)  AT K=   3, I=   2, J=  32


 TOTAL NUMBER OF POINT SOURCES/SINKS PRESENT IN THE FLOW MODEL =   240

 MAXIMUM STEPSIZE WHICH MEETS STABILITY CRITERION OF THE SINK & SOURCE TERM
 = 0.1000E+31(WHEN MIN. R.F.=1)  AT K=   0, I=   0, J=   0

 MAXIMUM STEPSIZE WHICH MEETS STABILITY CRITERION OF THE DISPERSION TERM
 = 0.5618E-02(WHEN MIN. R.F.=1)  AT K=   3, I=   2, J=  32
     1 CALLS TO GCG PACKAGE FOR TRANSPORT TIME STEP  12 IN FLOW TIME STEP   6 STRESS PERIOD   2
    10 TOTAL ITERATIONS
  MAXIMUM CONCENTRATION CHANGES FOR EACH ITERATION:
  MAX. CHANGE LAYER,ROW,COL MAX. CHANGE LAYER,ROW,COL MAX. CHANGE LAYER,ROW,COL MAX. CHANGE LAYER,ROW,COL MAX. CHANGE LAYER,ROW,COL
 ------------------------------------------------------------------------------------------------------------------------------------
   0.1182E-02 (  8,  3, 52)  0.2225E-03 (  6,  2, 57)  0.5308E-04 (  4,  1, 36)  0.3033E-04 (  3,  2, 33)  0.1271E-04 (  4,  2, 33)
   0.4364E-05 (  3,  2, 33)  0.1208E-05 (  3,  2, 34)  0.3836E-06 (  2,  2, 34)  0.1022E-06 (  3,  2, 34)  0.2533E-07 (  3,  3, 32)
0WARNING: NUMERICAL OSCILLATION ENCOUNTERED
 ONE OR MORE CELL CONCENTRATIONS LESS THAN CRHOREF
 SMALLEST DENSITY =  0.100E+04
 AT CELL (I,J,K) = (   3,  68,  18)



                                          ================================================
                                                         FROM TIME =   7.0000     TO    8.0000    

 
 SOLVING FOR HEAD 
 FLOW MODEL IS TRANSIENT
 FLOW MODEL CONTAINS CONSTANT-HEAD CELLS


 MAXIMUM STEPSIZE DURING WHICH ANY PARTICLE CANNOT MOVE MORE THAN ONE CELL
 = 0.1190    (WHEN MIN. R.F.=1)  AT K=   3, I=   2, J=  33

 MAXIMUM STEPSIZE WHICH MEETS STABILITY CRITERION OF THE ADVECTION TERM
 (FOR PURE FINITE-DIFFERENCE OPTION, MIXELM=0) 
 = 0.8155E-01(WHEN MIN. R.F.=1)  AT K=   3, I=   2, J=  32


 TOTAL NUMBER OF POINT SOURCES/SINKS PRESENT IN THE FLOW MODEL =   240

 MAXIMUM STEPSIZE WHICH MEETS STABILITY CRITERION OF THE SINK & SOURCE TERM
 = 0.1000E+31(WHEN MIN. R.F.=1)  AT K=   0, I=   0, J=   0

 MAXIMUM STEPSIZE WHICH MEETS STABILITY CRITERION OF THE DISPERSION TERM
 = 0.5618E-02(WHEN MIN. R.F.=1)  AT K=   3, I=   2, J=  32


     1 CALLS TO GCG PACKAGE FOR TRANSPORT TIME STEP   1 IN FLOW TIME STEP   7 STRESS PERIOD   2
    18 TOTAL ITERATIONS

 NO OUTPUT CONTROL FOR STRESS PERIOD    2   TIME STEP   7
0WARNING: NUMERICAL OSCILLATION ENCOUNTERED
 ONE OR MORE CELL CONCENTRATIONS LESS THAN CRHOREF
 SMALLEST DENSITY =  0.100E+04
 AT CELL (I,J,K) = (   3,  68,  18)

 
 SOLVING FOR HEAD 
 FLOW MODEL IS TRANSIENT
 FLOW MODEL CONTAINS CONSTANT-HEAD CELLS


 MAXIMUM STEPSIZE DURING WHICH ANY PARTICLE CANNOT MOVE MORE THAN ONE CELL
 = 0.1190    (WHEN MIN. R.F.=1)  AT K=   3, I=   2, J=  33

 MAXIMUM STEPSIZE WHICH MEETS STABILITY CRITERION OF THE ADVECTION TERM
 (FOR PURE FINITE-DIFFERENCE OPTION, MIXELM=0) 
 = 0.8156E-01(WHEN MIN. R.F.=1)  AT K=   3, I=   2, J=  32


 TOTAL NUMBER OF POINT SOURCES/SINKS PRESENT IN THE FLOW MODEL =   240

 MAXIMUM STEPSIZE WHICH MEETS STABILITY CRITERION OF THE SINK & SOURCE TERM
 = 0.1000E+31(WHEN MIN. R.F.=1)  AT K=   0, I=   0, J=   0

 MAXIMUM STEPSIZE WHICH MEETS STABILITY CRITERION OF THE DISPERSION TERM
 = 0.5618E-02(WHEN MIN. R.F.=1)  AT K=   3, I=   2, J=  32
     1 CALLS TO GCG PACKAGE FOR TRANSPORT TIME STEP   2 IN FLOW TIME STEP   7 STRESS PERIOD   2
    18 TOTAL ITERATIONS
0WARNING: NUMERICAL OSCILLATION ENCOUNTERED
 ONE OR MORE CELL CONCENTRATIONS LESS THAN CRHOREF
 SMALLEST DENSITY =  0.100E+04
 AT CELL (I,J,K) = (   1,  63,  22)

 
 SOLVING FOR HEAD 
 FLOW MODEL IS TRANSIENT
 FLOW MODEL CONTAINS CONSTANT-HEAD CELLS


 MAXIMUM STEPSIZE DURING WHICH ANY PARTICLE CANNOT MOVE MORE THAN ONE CELL
 = 0.1190    (WHEN MIN. R.F.=1)  AT K=   3, I=   2, J=  33

 MAXIMUM STEPSIZE WHICH MEETS STABILITY CRITERION OF THE ADVECTION TERM
 (FOR PURE FINITE-DIFFERENCE OPTION, MIXELM=0) 
 = 0.8156E-01(WHEN MIN. R.F.=1)  AT K=   3, I=   2, J=  32


 TOTAL NUMBER OF POINT SOURCES/SINKS PRESENT IN THE FLOW MODEL =   240

 MAXIMUM STEPSIZE WHICH MEETS STABILITY CRITERION OF THE SINK & SOURCE TERM
 = 0.1000E+31(WHEN MIN. R.F.=1)  AT K=   0, I=   0, J=   0

 MAXIMUM STEPSIZE WHICH MEETS STABILITY CRITERION OF THE DISPERSION TERM
 = 0.5619E-02(WHEN MIN. R.F.=1)  AT K=   3, I=   2, J=  32
     1 CALLS TO GCG PACKAGE FOR TRANSPORT TIME STEP   3 IN FLOW TIME STEP   7 STRESS PERIOD   2
    18 TOTAL ITERATIONS
0WARNING: NUMERICAL OSCILLATION ENCOUNTERED
 ONE OR MORE CELL CONCENTRATIONS LESS THAN CRHOREF
 SMALLEST DENSITY =  0.100E+04
 AT CELL (I,J,K) = (   1,  63,  22)

 
 SOLVING FOR HEAD 
 FLOW MODEL IS TRANSIENT
 FLOW MODEL CONTAINS CONSTANT-HEAD CELLS


 MAXIMUM STEPSIZE DURING WHICH ANY PARTICLE CANNOT MOVE MORE THAN ONE CELL
 = 0.1190    (WHEN MIN. R.F.=1)  AT K=   3, I=   2, J=  33

 MAXIMUM STEPSIZE WHICH MEETS STABILITY CRITERION OF THE ADVECTION TERM
 (FOR PURE FINITE-DIFFERENCE OPTION, MIXELM=0) 
 = 0.8156E-01(WHEN MIN. R.F.=1)  AT K=   3, I=   2, J=  32


 TOTAL NUMBER OF POINT SOURCES/SINKS PRESENT IN THE FLOW MODEL =   240

 MAXIMUM STEPSIZE WHICH MEETS STABILITY CRITERION OF THE SINK & SOURCE TERM
 = 0.1000E+31(WHEN MIN. R.F.=1)  AT K=   0, I=   0, J=   0

 MAXIMUM STEPSIZE WHICH MEETS STABILITY CRITERION OF THE DISPERSION TERM
 = 0.5619E-02(WHEN MIN. R.F.=1)  AT K=   3, I=   2, J=  32
     1 CALLS TO GCG PACKAGE FOR TRANSPORT TIME STEP   4 IN FLOW TIME STEP   7 STRESS PERIOD   2
    18 TOTAL ITERATIONS
0WARNING: NUMERICAL OSCILLATION ENCOUNTERED
 ONE OR MORE CELL CONCENTRATIONS LESS THAN CRHOREF
 SMALLEST DENSITY =  0.100E+04
 AT CELL (I,J,K) = (   1,  63,  22)

 
 SOLVING FOR HEAD 
 FLOW MODEL IS TRANSIENT
 FLOW MODEL CONTAINS CONSTANT-HEAD CELLS


 MAXIMUM STEPSIZE DURING WHICH ANY PARTICLE CANNOT MOVE MORE THAN ONE CELL
 = 0.1190    (WHEN MIN. R.F.=1)  AT K=   3, I=   2, J=  33

 MAXIMUM STEPSIZE WHICH MEETS STABILITY CRITERION OF THE ADVECTION TERM
 (FOR PURE FINITE-DIFFERENCE OPTION, MIXELM=0) 
 = 0.8156E-01(WHEN MIN. R.F.=1)  AT K=   3, I=   2, J=  32


 TOTAL NUMBER OF POINT SOURCES/SINKS PRESENT IN THE FLOW MODEL =   240

 MAXIMUM STEPSIZE WHICH MEETS STABILITY CRITERION OF THE SINK & SOURCE TERM
 = 0.1000E+31(WHEN MIN. R.F.=1)  AT K=   0, I=   0, J=   0

 MAXIMUM STEPSIZE WHICH MEETS STABILITY CRITERION OF THE DISPERSION TERM
 = 0.5619E-02(WHEN MIN. R.F.=1)  AT K=   3, I=   2, J=  32
     1 CALLS TO GCG PACKAGE FOR TRANSPORT TIME STEP   5 IN FLOW TIME STEP   7 STRESS PERIOD   2
    18 TOTAL ITERATIONS
0WARNING: NUMERICAL OSCILLATION ENCOUNTERED
 ONE OR MORE CELL CONCENTRATIONS LESS THAN CRHOREF
 SMALLEST DENSITY =  0.100E+04
 AT CELL (I,J,K) = (   1,  63,  22)

 
 SOLVING FOR HEAD 
 FLOW MODEL IS TRANSIENT
 FLOW MODEL CONTAINS CONSTANT-HEAD CELLS


 MAXIMUM STEPSIZE DURING WHICH ANY PARTICLE CANNOT MOVE MORE THAN ONE CELL
 = 0.1190    (WHEN MIN. R.F.=1)  AT K=   3, I=   2, J=  33

 MAXIMUM STEPSIZE WHICH MEETS STABILITY CRITERION OF THE ADVECTION TERM
 (FOR PURE FINITE-DIFFERENCE OPTION, MIXELM=0) 
 = 0.8156E-01(WHEN MIN. R.F.=1)  AT K=   3, I=   2, J=  32


 TOTAL NUMBER OF POINT SOURCES/SINKS PRESENT IN THE FLOW MODEL =   240

 MAXIMUM STEPSIZE WHICH MEETS STABILITY CRITERION OF THE SINK & SOURCE TERM
 = 0.1000E+31(WHEN MIN. R.F.=1)  AT K=   0, I=   0, J=   0

 MAXIMUM STEPSIZE WHICH MEETS STABILITY CRITERION OF THE DISPERSION TERM
 = 0.5619E-02(WHEN MIN. R.F.=1)  AT K=   3, I=   2, J=  32
     1 CALLS TO GCG PACKAGE FOR TRANSPORT TIME STEP   6 IN FLOW TIME STEP   7 STRESS PERIOD   2
    18 TOTAL ITERATIONS
0WARNING: NUMERICAL OSCILLATION ENCOUNTERED
 ONE OR MORE CELL CONCENTRATIONS LESS THAN CRHOREF
 SMALLEST DENSITY =  0.100E+04
 AT CELL (I,J,K) = (   1,  63,  22)

 
 SOLVING FOR HEAD 
 FLOW MODEL IS TRANSIENT
 FLOW MODEL CONTAINS CONSTANT-HEAD CELLS


 MAXIMUM STEPSIZE DURING WHICH ANY PARTICLE CANNOT MOVE MORE THAN ONE CELL
 = 0.1191    (WHEN MIN. R.F.=1)  AT K=   3, I=   2, J=  33

 MAXIMUM STEPSIZE WHICH MEETS STABILITY CRITERION OF THE ADVECTION TERM
 (FOR PURE FINITE-DIFFERENCE OPTION, MIXELM=0) 
 = 0.8156E-01(WHEN MIN. R.F.=1)  AT K=   3, I=   2, J=  32


 TOTAL NUMBER OF POINT SOURCES/SINKS PRESENT IN THE FLOW MODEL =   240

 MAXIMUM STEPSIZE WHICH MEETS STABILITY CRITERION OF THE SINK & SOURCE TERM
 = 0.1000E+31(WHEN MIN. R.F.=1)  AT K=   0, I=   0, J=   0

 MAXIMUM STEPSIZE WHICH MEETS STABILITY CRITERION OF THE DISPERSION TERM
 = 0.5619E-02(WHEN MIN. R.F.=1)  AT K=   3, I=   2, J=  32
     1 CALLS TO GCG PACKAGE FOR TRANSPORT TIME STEP   7 IN FLOW TIME STEP   7 STRESS PERIOD   2
    18 TOTAL ITERATIONS
0WARNING: NUMERICAL OSCILLATION ENCOUNTERED
 ONE OR MORE CELL CONCENTRATIONS LESS THAN CRHOREF
 SMALLEST DENSITY =  0.100E+04
 AT CELL (I,J,K) = (   1,  63,  22)

 
 SOLVING FOR HEAD 
 FLOW MODEL IS TRANSIENT
 FLOW MODEL CONTAINS CONSTANT-HEAD CELLS


 MAXIMUM STEPSIZE DURING WHICH ANY PARTICLE CANNOT MOVE MORE THAN ONE CELL
 = 0.1191    (WHEN MIN. R.F.=1)  AT K=   3, I=   2, J=  33

 MAXIMUM STEPSIZE WHICH MEETS STABILITY CRITERION OF THE ADVECTION TERM
 (FOR PURE FINITE-DIFFERENCE OPTION, MIXELM=0) 
 = 0.8157E-01(WHEN MIN. R.F.=1)  AT K=   3, I=   2, J=  32


 TOTAL NUMBER OF POINT SOURCES/SINKS PRESENT IN THE FLOW MODEL =   240

 MAXIMUM STEPSIZE WHICH MEETS STABILITY CRITERION OF THE SINK & SOURCE TERM
 = 0.1000E+31(WHEN MIN. R.F.=1)  AT K=   0, I=   0, J=   0

 MAXIMUM STEPSIZE WHICH MEETS STABILITY CRITERION OF THE DISPERSION TERM
 = 0.5619E-02(WHEN MIN. R.F.=1)  AT K=   3, I=   2, J=  32
     1 CALLS TO GCG PACKAGE FOR TRANSPORT TIME STEP   8 IN FLOW TIME STEP   7 STRESS PERIOD   2
    18 TOTAL ITERATIONS
0WARNING: NUMERICAL OSCILLATION ENCOUNTERED
 ONE OR MORE CELL CONCENTRATIONS LESS THAN CRHOREF
 SMALLEST DENSITY =  0.100E+04
 AT CELL (I,J,K) = (   1,  63,  22)

 
 SOLVING FOR HEAD 
 FLOW MODEL IS TRANSIENT
 FLOW MODEL CONTAINS CONSTANT-HEAD CELLS


 MAXIMUM STEPSIZE DURING WHICH ANY PARTICLE CANNOT MOVE MORE THAN ONE CELL
 = 0.1191    (WHEN MIN. R.F.=1)  AT K=   3, I=   2, J=  33

 MAXIMUM STEPSIZE WHICH MEETS STABILITY CRITERION OF THE ADVECTION TERM
 (FOR PURE FINITE-DIFFERENCE OPTION, MIXELM=0) 
 = 0.8157E-01(WHEN MIN. R.F.=1)  AT K=   3, I=   2, J=  32


 TOTAL NUMBER OF POINT SOURCES/SINKS PRESENT IN THE FLOW MODEL =   240

 MAXIMUM STEPSIZE WHICH MEETS STABILITY CRITERION OF THE SINK & SOURCE TERM
 = 0.1000E+31(WHEN MIN. R.F.=1)  AT K=   0, I=   0, J=   0

 MAXIMUM STEPSIZE WHICH MEETS STABILITY CRITERION OF THE DISPERSION TERM
 = 0.5619E-02(WHEN MIN. R.F.=1)  AT K=   3, I=   2, J=  32
     1 CALLS TO GCG PACKAGE FOR TRANSPORT TIME STEP   9 IN FLOW TIME STEP   7 STRESS PERIOD   2
    18 TOTAL ITERATIONS
0WARNING: NUMERICAL OSCILLATION ENCOUNTERED
 ONE OR MORE CELL CONCENTRATIONS LESS THAN CRHOREF
 SMALLEST DENSITY =  0.100E+04
 AT CELL (I,J,K) = (   1,  63,  22)

 
 SOLVING FOR HEAD 
 FLOW MODEL IS TRANSIENT
 FLOW MODEL CONTAINS CONSTANT-HEAD CELLS


 MAXIMUM STEPSIZE DURING WHICH ANY PARTICLE CANNOT MOVE MORE THAN ONE CELL
 = 0.1191    (WHEN MIN. R.F.=1)  AT K=   3, I=   2, J=  33

 MAXIMUM STEPSIZE WHICH MEETS STABILITY CRITERION OF THE ADVECTION TERM
 (FOR PURE FINITE-DIFFERENCE OPTION, MIXELM=0) 
 = 0.8157E-01(WHEN MIN. R.F.=1)  AT K=   3, I=   2, J=  32


 TOTAL NUMBER OF POINT SOURCES/SINKS PRESENT IN THE FLOW MODEL =   240

 MAXIMUM STEPSIZE WHICH MEETS STABILITY CRITERION OF THE SINK & SOURCE TERM
 = 0.1000E+31(WHEN MIN. R.F.=1)  AT K=   0, I=   0, J=   0

 MAXIMUM STEPSIZE WHICH MEETS STABILITY CRITERION OF THE DISPERSION TERM
 = 0.5619E-02(WHEN MIN. R.F.=1)  AT K=   3, I=   2, J=  32
     1 CALLS TO GCG PACKAGE FOR TRANSPORT TIME STEP  10 IN FLOW TIME STEP   7 STRESS PERIOD   2
    18 TOTAL ITERATIONS



 >>>>>>>>>>>>>>>>>>>>>>>>>>>>>>>>>>>>>>>>>>>>>>>>>>>>>>>FOR COMPONENT NO. 01<<<<<<<<<<<<<<<<<<<<<<<<<<<<<<<<<<<<<<<<<<<<<<<<<<<<<<<


                                            -------------------------------------------
                                                      TRANSPORT STEP NO.   10
                                            -------------------------------------------

 TOTAL ELAPSED TIME SINCE BEGINNING OF SIMULATION =   7.892837    D   
 .....................................................................

                     CUMULATIVE MASS BUDGETS AT END OF TRANSPORT STEP   10, TIME STEP    7, STRESS PERIOD    2
                     ------------------------------------------------------------------------------------------

                                                             IN                           OUT
                                                      ----------------             ----------------
                               CONSTANT CONCENTRATION:    2652.987                   -482.9170    
                                        CONSTANT HEAD:    0.000000                    0.000000    
                               MASS STOR (FLOW MODEL):   0.1186899E-01              -0.2231448E-02
                                MASS STORAGE (SOLUTE):   0.5620033E-06               -2170.080    
                            ---------------------------------------------------------------------------
                                              [TOTAL]:    2652.999     KG            -2652.999     KG  

                                                          NET (IN - OUT):  -0.2191881E-03
                                                   DISCREPANCY (PERCENT):  -0.8261897E-05
0WARNING: NUMERICAL OSCILLATION ENCOUNTERED
 ONE OR MORE CELL CONCENTRATIONS LESS THAN CRHOREF
 SMALLEST DENSITY =  0.100E+04
 AT CELL (I,J,K) = (   1,  64,  22)

 
 SOLVING FOR HEAD 
 FLOW MODEL IS TRANSIENT
 FLOW MODEL CONTAINS CONSTANT-HEAD CELLS


 MAXIMUM STEPSIZE DURING WHICH ANY PARTICLE CANNOT MOVE MORE THAN ONE CELL
 = 0.1191    (WHEN MIN. R.F.=1)  AT K=   3, I=   2, J=  33

 MAXIMUM STEPSIZE WHICH MEETS STABILITY CRITERION OF THE ADVECTION TERM
 (FOR PURE FINITE-DIFFERENCE OPTION, MIXELM=0) 
 = 0.8157E-01(WHEN MIN. R.F.=1)  AT K=   3, I=   2, J=  32


 TOTAL NUMBER OF POINT SOURCES/SINKS PRESENT IN THE FLOW MODEL =   240

 MAXIMUM STEPSIZE WHICH MEETS STABILITY CRITERION OF THE SINK & SOURCE TERM
 = 0.1000E+31(WHEN MIN. R.F.=1)  AT K=   0, I=   0, J=   0

 MAXIMUM STEPSIZE WHICH MEETS STABILITY CRITERION OF THE DISPERSION TERM
 = 0.5619E-02(WHEN MIN. R.F.=1)  AT K=   3, I=   2, J=  32
     1 CALLS TO GCG PACKAGE FOR TRANSPORT TIME STEP  11 IN FLOW TIME STEP   7 STRESS PERIOD   2
    18 TOTAL ITERATIONS
0WARNING: NUMERICAL OSCILLATION ENCOUNTERED
 ONE OR MORE CELL CONCENTRATIONS LESS THAN CRHOREF
 SMALLEST DENSITY =  0.100E+04
 AT CELL (I,J,K) = (   1,  64,  22)

 
 SOLVING FOR HEAD 
 FLOW MODEL IS TRANSIENT
 FLOW MODEL CONTAINS CONSTANT-HEAD CELLS


 MAXIMUM STEPSIZE DURING WHICH ANY PARTICLE CANNOT MOVE MORE THAN ONE CELL
 = 0.1191    (WHEN MIN. R.F.=1)  AT K=   3, I=   2, J=  33

 MAXIMUM STEPSIZE WHICH MEETS STABILITY CRITERION OF THE ADVECTION TERM
 (FOR PURE FINITE-DIFFERENCE OPTION, MIXELM=0) 
 = 0.8157E-01(WHEN MIN. R.F.=1)  AT K=   3, I=   2, J=  32


 TOTAL NUMBER OF POINT SOURCES/SINKS PRESENT IN THE FLOW MODEL =   240

 MAXIMUM STEPSIZE WHICH MEETS STABILITY CRITERION OF THE SINK & SOURCE TERM
 = 0.1000E+31(WHEN MIN. R.F.=1)  AT K=   0, I=   0, J=   0

 MAXIMUM STEPSIZE WHICH MEETS STABILITY CRITERION OF THE DISPERSION TERM
 = 0.5619E-02(WHEN MIN. R.F.=1)  AT K=   3, I=   2, J=  32
     1 CALLS TO GCG PACKAGE FOR TRANSPORT TIME STEP  12 IN FLOW TIME STEP   7 STRESS PERIOD   2
     9 TOTAL ITERATIONS
  MAXIMUM CONCENTRATION CHANGES FOR EACH ITERATION:
  MAX. CHANGE LAYER,ROW,COL MAX. CHANGE LAYER,ROW,COL MAX. CHANGE LAYER,ROW,COL MAX. CHANGE LAYER,ROW,COL MAX. CHANGE LAYER,ROW,COL
 ------------------------------------------------------------------------------------------------------------------------------------
   0.1040E-02 ( 11,  3, 49)  0.1881E-03 (  6,  2, 57)  0.4086E-04 (  4,  1, 36)  0.2328E-04 (  3,  2, 33)  0.9696E-05 (  4,  2, 33)
   0.3341E-05 (  3,  2, 33)  0.9027E-06 (  3,  2, 34)  0.2900E-06 (  2,  2, 34)  0.7748E-07 (  3,  2, 34)
0WARNING: NUMERICAL OSCILLATION ENCOUNTERED
 ONE OR MORE CELL CONCENTRATIONS LESS THAN CRHOREF
 SMALLEST DENSITY =  0.100E+04
 AT CELL (I,J,K) = (   1,  64,  22)



                                          ================================================
                                                         FROM TIME =   8.0000     TO    9.0000    

 
 SOLVING FOR HEAD 
 FLOW MODEL IS TRANSIENT
 FLOW MODEL CONTAINS CONSTANT-HEAD CELLS


 MAXIMUM STEPSIZE DURING WHICH ANY PARTICLE CANNOT MOVE MORE THAN ONE CELL
 = 0.1191    (WHEN MIN. R.F.=1)  AT K=   3, I=   2, J=  33

 MAXIMUM STEPSIZE WHICH MEETS STABILITY CRITERION OF THE ADVECTION TERM
 (FOR PURE FINITE-DIFFERENCE OPTION, MIXELM=0) 
 = 0.8157E-01(WHEN MIN. R.F.=1)  AT K=   3, I=   2, J=  32


 TOTAL NUMBER OF POINT SOURCES/SINKS PRESENT IN THE FLOW MODEL =   240

 MAXIMUM STEPSIZE WHICH MEETS STABILITY CRITERION OF THE SINK & SOURCE TERM
 = 0.1000E+31(WHEN MIN. R.F.=1)  AT K=   0, I=   0, J=   0

 MAXIMUM STEPSIZE WHICH MEETS STABILITY CRITERION OF THE DISPERSION TERM
 = 0.5619E-02(WHEN MIN. R.F.=1)  AT K=   3, I=   2, J=  32


     1 CALLS TO GCG PACKAGE FOR TRANSPORT TIME STEP   1 IN FLOW TIME STEP   8 STRESS PERIOD   2
    18 TOTAL ITERATIONS

 NO OUTPUT CONTROL FOR STRESS PERIOD    2   TIME STEP   8
0WARNING: NUMERICAL OSCILLATION ENCOUNTERED
 ONE OR MORE CELL CONCENTRATIONS LESS THAN CRHOREF
 SMALLEST DENSITY =  0.100E+04
 AT CELL (I,J,K) = (   1,  64,  22)

 
 SOLVING FOR HEAD 
 FLOW MODEL IS TRANSIENT
 FLOW MODEL CONTAINS CONSTANT-HEAD CELLS


 MAXIMUM STEPSIZE DURING WHICH ANY PARTICLE CANNOT MOVE MORE THAN ONE CELL
 = 0.1191    (WHEN MIN. R.F.=1)  AT K=   3, I=   2, J=  33

 MAXIMUM STEPSIZE WHICH MEETS STABILITY CRITERION OF THE ADVECTION TERM
 (FOR PURE FINITE-DIFFERENCE OPTION, MIXELM=0) 
 = 0.8157E-01(WHEN MIN. R.F.=1)  AT K=   3, I=   2, J=  32


 TOTAL NUMBER OF POINT SOURCES/SINKS PRESENT IN THE FLOW MODEL =   240

 MAXIMUM STEPSIZE WHICH MEETS STABILITY CRITERION OF THE SINK & SOURCE TERM
 = 0.1000E+31(WHEN MIN. R.F.=1)  AT K=   0, I=   0, J=   0

 MAXIMUM STEPSIZE WHICH MEETS STABILITY CRITERION OF THE DISPERSION TERM
 = 0.5619E-02(WHEN MIN. R.F.=1)  AT K=   3, I=   2, J=  32
     1 CALLS TO GCG PACKAGE FOR TRANSPORT TIME STEP   2 IN FLOW TIME STEP   8 STRESS PERIOD   2
    18 TOTAL ITERATIONS
0WARNING: NUMERICAL OSCILLATION ENCOUNTERED
 ONE OR MORE CELL CONCENTRATIONS LESS THAN CRHOREF
 SMALLEST DENSITY =  0.100E+04
 AT CELL (I,J,K) = (   1,  64,  22)

 
 SOLVING FOR HEAD 
 FLOW MODEL IS TRANSIENT
 FLOW MODEL CONTAINS CONSTANT-HEAD CELLS


 MAXIMUM STEPSIZE DURING WHICH ANY PARTICLE CANNOT MOVE MORE THAN ONE CELL
 = 0.1191    (WHEN MIN. R.F.=1)  AT K=   3, I=   2, J=  33

 MAXIMUM STEPSIZE WHICH MEETS STABILITY CRITERION OF THE ADVECTION TERM
 (FOR PURE FINITE-DIFFERENCE OPTION, MIXELM=0) 
 = 0.8157E-01(WHEN MIN. R.F.=1)  AT K=   3, I=   2, J=  32


 TOTAL NUMBER OF POINT SOURCES/SINKS PRESENT IN THE FLOW MODEL =   240

 MAXIMUM STEPSIZE WHICH MEETS STABILITY CRITERION OF THE SINK & SOURCE TERM
 = 0.1000E+31(WHEN MIN. R.F.=1)  AT K=   0, I=   0, J=   0

 MAXIMUM STEPSIZE WHICH MEETS STABILITY CRITERION OF THE DISPERSION TERM
 = 0.5619E-02(WHEN MIN. R.F.=1)  AT K=   3, I=   2, J=  32
     1 CALLS TO GCG PACKAGE FOR TRANSPORT TIME STEP   3 IN FLOW TIME STEP   8 STRESS PERIOD   2
    18 TOTAL ITERATIONS
0WARNING: NUMERICAL OSCILLATION ENCOUNTERED
 ONE OR MORE CELL CONCENTRATIONS LESS THAN CRHOREF
 SMALLEST DENSITY =  0.100E+04
 AT CELL (I,J,K) = (   1,  64,  22)

 
 SOLVING FOR HEAD 
 FLOW MODEL IS TRANSIENT
 FLOW MODEL CONTAINS CONSTANT-HEAD CELLS


 MAXIMUM STEPSIZE DURING WHICH ANY PARTICLE CANNOT MOVE MORE THAN ONE CELL
 = 0.1191    (WHEN MIN. R.F.=1)  AT K=   3, I=   2, J=  33

 MAXIMUM STEPSIZE WHICH MEETS STABILITY CRITERION OF THE ADVECTION TERM
 (FOR PURE FINITE-DIFFERENCE OPTION, MIXELM=0) 
 = 0.8157E-01(WHEN MIN. R.F.=1)  AT K=   3, I=   2, J=  32


 TOTAL NUMBER OF POINT SOURCES/SINKS PRESENT IN THE FLOW MODEL =   240

 MAXIMUM STEPSIZE WHICH MEETS STABILITY CRITERION OF THE SINK & SOURCE TERM
 = 0.1000E+31(WHEN MIN. R.F.=1)  AT K=   0, I=   0, J=   0

 MAXIMUM STEPSIZE WHICH MEETS STABILITY CRITERION OF THE DISPERSION TERM
 = 0.5619E-02(WHEN MIN. R.F.=1)  AT K=   3, I=   2, J=  32
     1 CALLS TO GCG PACKAGE FOR TRANSPORT TIME STEP   4 IN FLOW TIME STEP   8 STRESS PERIOD   2
    18 TOTAL ITERATIONS
0WARNING: NUMERICAL OSCILLATION ENCOUNTERED
 ONE OR MORE CELL CONCENTRATIONS LESS THAN CRHOREF
 SMALLEST DENSITY =  0.100E+04
 AT CELL (I,J,K) = (   1,  64,  22)

 
 SOLVING FOR HEAD 
 FLOW MODEL IS TRANSIENT
 FLOW MODEL CONTAINS CONSTANT-HEAD CELLS


 MAXIMUM STEPSIZE DURING WHICH ANY PARTICLE CANNOT MOVE MORE THAN ONE CELL
 = 0.1191    (WHEN MIN. R.F.=1)  AT K=   3, I=   2, J=  33

 MAXIMUM STEPSIZE WHICH MEETS STABILITY CRITERION OF THE ADVECTION TERM
 (FOR PURE FINITE-DIFFERENCE OPTION, MIXELM=0) 
 = 0.8157E-01(WHEN MIN. R.F.=1)  AT K=   3, I=   2, J=  32


 TOTAL NUMBER OF POINT SOURCES/SINKS PRESENT IN THE FLOW MODEL =   240

 MAXIMUM STEPSIZE WHICH MEETS STABILITY CRITERION OF THE SINK & SOURCE TERM
 = 0.1000E+31(WHEN MIN. R.F.=1)  AT K=   0, I=   0, J=   0

 MAXIMUM STEPSIZE WHICH MEETS STABILITY CRITERION OF THE DISPERSION TERM
 = 0.5620E-02(WHEN MIN. R.F.=1)  AT K=   3, I=   2, J=  32
     1 CALLS TO GCG PACKAGE FOR TRANSPORT TIME STEP   5 IN FLOW TIME STEP   8 STRESS PERIOD   2
    18 TOTAL ITERATIONS
0WARNING: NUMERICAL OSCILLATION ENCOUNTERED
 ONE OR MORE CELL CONCENTRATIONS LESS THAN CRHOREF
 SMALLEST DENSITY =  0.100E+04
 AT CELL (I,J,K) = (   1,  63,  23)

 
 SOLVING FOR HEAD 
 FLOW MODEL IS TRANSIENT
 FLOW MODEL CONTAINS CONSTANT-HEAD CELLS


 MAXIMUM STEPSIZE DURING WHICH ANY PARTICLE CANNOT MOVE MORE THAN ONE CELL
 = 0.1191    (WHEN MIN. R.F.=1)  AT K=   3, I=   2, J=  33

 MAXIMUM STEPSIZE WHICH MEETS STABILITY CRITERION OF THE ADVECTION TERM
 (FOR PURE FINITE-DIFFERENCE OPTION, MIXELM=0) 
 = 0.8157E-01(WHEN MIN. R.F.=1)  AT K=   3, I=   2, J=  32


 TOTAL NUMBER OF POINT SOURCES/SINKS PRESENT IN THE FLOW MODEL =   240

 MAXIMUM STEPSIZE WHICH MEETS STABILITY CRITERION OF THE SINK & SOURCE TERM
 = 0.1000E+31(WHEN MIN. R.F.=1)  AT K=   0, I=   0, J=   0

 MAXIMUM STEPSIZE WHICH MEETS STABILITY CRITERION OF THE DISPERSION TERM
 = 0.5620E-02(WHEN MIN. R.F.=1)  AT K=   3, I=   2, J=  32
     1 CALLS TO GCG PACKAGE FOR TRANSPORT TIME STEP   6 IN FLOW TIME STEP   8 STRESS PERIOD   2
    18 TOTAL ITERATIONS
0WARNING: NUMERICAL OSCILLATION ENCOUNTERED
 ONE OR MORE CELL CONCENTRATIONS LESS THAN CRHOREF
 SMALLEST DENSITY =  0.100E+04
 AT CELL (I,J,K) = (   1,  63,  23)

 
 SOLVING FOR HEAD 
 FLOW MODEL IS TRANSIENT
 FLOW MODEL CONTAINS CONSTANT-HEAD CELLS


 MAXIMUM STEPSIZE DURING WHICH ANY PARTICLE CANNOT MOVE MORE THAN ONE CELL
 = 0.1191    (WHEN MIN. R.F.=1)  AT K=   3, I=   2, J=  33

 MAXIMUM STEPSIZE WHICH MEETS STABILITY CRITERION OF THE ADVECTION TERM
 (FOR PURE FINITE-DIFFERENCE OPTION, MIXELM=0) 
 = 0.8157E-01(WHEN MIN. R.F.=1)  AT K=   3, I=   2, J=  32


 TOTAL NUMBER OF POINT SOURCES/SINKS PRESENT IN THE FLOW MODEL =   240

 MAXIMUM STEPSIZE WHICH MEETS STABILITY CRITERION OF THE SINK & SOURCE TERM
 = 0.1000E+31(WHEN MIN. R.F.=1)  AT K=   0, I=   0, J=   0

 MAXIMUM STEPSIZE WHICH MEETS STABILITY CRITERION OF THE DISPERSION TERM
 = 0.5620E-02(WHEN MIN. R.F.=1)  AT K=   3, I=   2, J=  32
     1 CALLS TO GCG PACKAGE FOR TRANSPORT TIME STEP   7 IN FLOW TIME STEP   8 STRESS PERIOD   2
    18 TOTAL ITERATIONS
0WARNING: NUMERICAL OSCILLATION ENCOUNTERED
 ONE OR MORE CELL CONCENTRATIONS LESS THAN CRHOREF
 SMALLEST DENSITY =  0.100E+04
 AT CELL (I,J,K) = (   1,  63,  23)

 
 SOLVING FOR HEAD 
 FLOW MODEL IS TRANSIENT
 FLOW MODEL CONTAINS CONSTANT-HEAD CELLS


 MAXIMUM STEPSIZE DURING WHICH ANY PARTICLE CANNOT MOVE MORE THAN ONE CELL
 = 0.1191    (WHEN MIN. R.F.=1)  AT K=   3, I=   2, J=  33

 MAXIMUM STEPSIZE WHICH MEETS STABILITY CRITERION OF THE ADVECTION TERM
 (FOR PURE FINITE-DIFFERENCE OPTION, MIXELM=0) 
 = 0.8157E-01(WHEN MIN. R.F.=1)  AT K=   3, I=   2, J=  32


 TOTAL NUMBER OF POINT SOURCES/SINKS PRESENT IN THE FLOW MODEL =   240

 MAXIMUM STEPSIZE WHICH MEETS STABILITY CRITERION OF THE SINK & SOURCE TERM
 = 0.1000E+31(WHEN MIN. R.F.=1)  AT K=   0, I=   0, J=   0

 MAXIMUM STEPSIZE WHICH MEETS STABILITY CRITERION OF THE DISPERSION TERM
 = 0.5620E-02(WHEN MIN. R.F.=1)  AT K=   3, I=   2, J=  32
     1 CALLS TO GCG PACKAGE FOR TRANSPORT TIME STEP   8 IN FLOW TIME STEP   8 STRESS PERIOD   2
    18 TOTAL ITERATIONS
0WARNING: NUMERICAL OSCILLATION ENCOUNTERED
 ONE OR MORE CELL CONCENTRATIONS LESS THAN CRHOREF
 SMALLEST DENSITY =  0.100E+04
 AT CELL (I,J,K) = (   1,  63,  23)

 
 SOLVING FOR HEAD 
 FLOW MODEL IS TRANSIENT
 FLOW MODEL CONTAINS CONSTANT-HEAD CELLS


 MAXIMUM STEPSIZE DURING WHICH ANY PARTICLE CANNOT MOVE MORE THAN ONE CELL
 = 0.1191    (WHEN MIN. R.F.=1)  AT K=   3, I=   2, J=  33

 MAXIMUM STEPSIZE WHICH MEETS STABILITY CRITERION OF THE ADVECTION TERM
 (FOR PURE FINITE-DIFFERENCE OPTION, MIXELM=0) 
 = 0.8158E-01(WHEN MIN. R.F.=1)  AT K=   3, I=   2, J=  32


 TOTAL NUMBER OF POINT SOURCES/SINKS PRESENT IN THE FLOW MODEL =   240

 MAXIMUM STEPSIZE WHICH MEETS STABILITY CRITERION OF THE SINK & SOURCE TERM
 = 0.1000E+31(WHEN MIN. R.F.=1)  AT K=   0, I=   0, J=   0

 MAXIMUM STEPSIZE WHICH MEETS STABILITY CRITERION OF THE DISPERSION TERM
 = 0.5620E-02(WHEN MIN. R.F.=1)  AT K=   3, I=   2, J=  32
     1 CALLS TO GCG PACKAGE FOR TRANSPORT TIME STEP   9 IN FLOW TIME STEP   8 STRESS PERIOD   2
    18 TOTAL ITERATIONS
0WARNING: NUMERICAL OSCILLATION ENCOUNTERED
 ONE OR MORE CELL CONCENTRATIONS LESS THAN CRHOREF
 SMALLEST DENSITY =  0.100E+04
 AT CELL (I,J,K) = (   1,  63,  23)

 
 SOLVING FOR HEAD 
 FLOW MODEL IS TRANSIENT
 FLOW MODEL CONTAINS CONSTANT-HEAD CELLS


 MAXIMUM STEPSIZE DURING WHICH ANY PARTICLE CANNOT MOVE MORE THAN ONE CELL
 = 0.1191    (WHEN MIN. R.F.=1)  AT K=   3, I=   2, J=  33

 MAXIMUM STEPSIZE WHICH MEETS STABILITY CRITERION OF THE ADVECTION TERM
 (FOR PURE FINITE-DIFFERENCE OPTION, MIXELM=0) 
 = 0.8158E-01(WHEN MIN. R.F.=1)  AT K=   3, I=   2, J=  32


 TOTAL NUMBER OF POINT SOURCES/SINKS PRESENT IN THE FLOW MODEL =   240

 MAXIMUM STEPSIZE WHICH MEETS STABILITY CRITERION OF THE SINK & SOURCE TERM
 = 0.1000E+31(WHEN MIN. R.F.=1)  AT K=   0, I=   0, J=   0

 MAXIMUM STEPSIZE WHICH MEETS STABILITY CRITERION OF THE DISPERSION TERM
 = 0.5620E-02(WHEN MIN. R.F.=1)  AT K=   3, I=   2, J=  32
     1 CALLS TO GCG PACKAGE FOR TRANSPORT TIME STEP  10 IN FLOW TIME STEP   8 STRESS PERIOD   2
    18 TOTAL ITERATIONS



 >>>>>>>>>>>>>>>>>>>>>>>>>>>>>>>>>>>>>>>>>>>>>>>>>>>>>>>FOR COMPONENT NO. 01<<<<<<<<<<<<<<<<<<<<<<<<<<<<<<<<<<<<<<<<<<<<<<<<<<<<<<<


                                            -------------------------------------------
                                                      TRANSPORT STEP NO.   10
                                            -------------------------------------------

 TOTAL ELAPSED TIME SINCE BEGINNING OF SIMULATION =   8.892965    D   
 .....................................................................

                     CUMULATIVE MASS BUDGETS AT END OF TRANSPORT STEP   10, TIME STEP    8, STRESS PERIOD    2
                     ------------------------------------------------------------------------------------------

                                                             IN                           OUT
                                                      ----------------             ----------------
                               CONSTANT CONCENTRATION:    2880.848                   -565.3296    
                                        CONSTANT HEAD:    0.000000                    0.000000    
                               MASS STOR (FLOW MODEL):   0.1187098E-01              -0.2348369E-02
                                MASS STORAGE (SOLUTE):   0.5620034E-06               -2315.528    
                            ---------------------------------------------------------------------------
                                              [TOTAL]:    2880.860     KG            -2880.860     KG  

                                                          NET (IN - OUT):  -0.2913425E-03
                                                   DISCREPANCY (PERCENT):  -0.1011304E-04
0WARNING: NUMERICAL OSCILLATION ENCOUNTERED
 ONE OR MORE CELL CONCENTRATIONS LESS THAN CRHOREF
 SMALLEST DENSITY =  0.100E+04
 AT CELL (I,J,K) = (   1,  63,  23)

 
 SOLVING FOR HEAD 
 FLOW MODEL IS TRANSIENT
 FLOW MODEL CONTAINS CONSTANT-HEAD CELLS


 MAXIMUM STEPSIZE DURING WHICH ANY PARTICLE CANNOT MOVE MORE THAN ONE CELL
 = 0.1191    (WHEN MIN. R.F.=1)  AT K=   3, I=   2, J=  33

 MAXIMUM STEPSIZE WHICH MEETS STABILITY CRITERION OF THE ADVECTION TERM
 (FOR PURE FINITE-DIFFERENCE OPTION, MIXELM=0) 
 = 0.8158E-01(WHEN MIN. R.F.=1)  AT K=   3, I=   2, J=  32


 TOTAL NUMBER OF POINT SOURCES/SINKS PRESENT IN THE FLOW MODEL =   240

 MAXIMUM STEPSIZE WHICH MEETS STABILITY CRITERION OF THE SINK & SOURCE TERM
 = 0.1000E+31(WHEN MIN. R.F.=1)  AT K=   0, I=   0, J=   0

 MAXIMUM STEPSIZE WHICH MEETS STABILITY CRITERION OF THE DISPERSION TERM
 = 0.5620E-02(WHEN MIN. R.F.=1)  AT K=   3, I=   2, J=  32
     1 CALLS TO GCG PACKAGE FOR TRANSPORT TIME STEP  11 IN FLOW TIME STEP   8 STRESS PERIOD   2
    18 TOTAL ITERATIONS
0WARNING: NUMERICAL OSCILLATION ENCOUNTERED
 ONE OR MORE CELL CONCENTRATIONS LESS THAN CRHOREF
 SMALLEST DENSITY =  0.100E+04
 AT CELL (I,J,K) = (   1,  63,  23)

 
 SOLVING FOR HEAD 
 FLOW MODEL IS TRANSIENT
 FLOW MODEL CONTAINS CONSTANT-HEAD CELLS


 MAXIMUM STEPSIZE DURING WHICH ANY PARTICLE CANNOT MOVE MORE THAN ONE CELL
 = 0.1191    (WHEN MIN. R.F.=1)  AT K=   3, I=   2, J=  33

 MAXIMUM STEPSIZE WHICH MEETS STABILITY CRITERION OF THE ADVECTION TERM
 (FOR PURE FINITE-DIFFERENCE OPTION, MIXELM=0) 
 = 0.8158E-01(WHEN MIN. R.F.=1)  AT K=   3, I=   2, J=  32


 TOTAL NUMBER OF POINT SOURCES/SINKS PRESENT IN THE FLOW MODEL =   240

 MAXIMUM STEPSIZE WHICH MEETS STABILITY CRITERION OF THE SINK & SOURCE TERM
 = 0.1000E+31(WHEN MIN. R.F.=1)  AT K=   0, I=   0, J=   0

 MAXIMUM STEPSIZE WHICH MEETS STABILITY CRITERION OF THE DISPERSION TERM
 = 0.5620E-02(WHEN MIN. R.F.=1)  AT K=   3, I=   2, J=  32
     1 CALLS TO GCG PACKAGE FOR TRANSPORT TIME STEP  12 IN FLOW TIME STEP   8 STRESS PERIOD   2
     9 TOTAL ITERATIONS
  MAXIMUM CONCENTRATION CHANGES FOR EACH ITERATION:
  MAX. CHANGE LAYER,ROW,COL MAX. CHANGE LAYER,ROW,COL MAX. CHANGE LAYER,ROW,COL MAX. CHANGE LAYER,ROW,COL MAX. CHANGE LAYER,ROW,COL
 ------------------------------------------------------------------------------------------------------------------------------------
   0.9257E-03 ( 11,  3, 50)  0.1628E-03 (  6,  2, 57)  0.3267E-04 (  4,  1, 36)  0.1865E-04 (  3,  2, 33)  0.7749E-05 (  4,  2, 33)
   0.2688E-05 (  3,  2, 33)  0.7133E-06 (  3,  2, 34)  0.2324E-06 (  2,  2, 34)  0.6255E-07 (  3,  2, 34)
0WARNING: NUMERICAL OSCILLATION ENCOUNTERED
 ONE OR MORE CELL CONCENTRATIONS LESS THAN CRHOREF
 SMALLEST DENSITY =  0.100E+04
 AT CELL (I,J,K) = (   1,  63,  23)



                                          ================================================
                                                         FROM TIME =   9.0000     TO   10.0000    

 
 SOLVING FOR HEAD 
 FLOW MODEL IS TRANSIENT
 FLOW MODEL CONTAINS CONSTANT-HEAD CELLS


 MAXIMUM STEPSIZE DURING WHICH ANY PARTICLE CANNOT MOVE MORE THAN ONE CELL
 = 0.1191    (WHEN MIN. R.F.=1)  AT K=   3, I=   2, J=  33

 MAXIMUM STEPSIZE WHICH MEETS STABILITY CRITERION OF THE ADVECTION TERM
 (FOR PURE FINITE-DIFFERENCE OPTION, MIXELM=0) 
 = 0.8158E-01(WHEN MIN. R.F.=1)  AT K=   3, I=   2, J=  32


 TOTAL NUMBER OF POINT SOURCES/SINKS PRESENT IN THE FLOW MODEL =   240

 MAXIMUM STEPSIZE WHICH MEETS STABILITY CRITERION OF THE SINK & SOURCE TERM
 = 0.1000E+31(WHEN MIN. R.F.=1)  AT K=   0, I=   0, J=   0

 MAXIMUM STEPSIZE WHICH MEETS STABILITY CRITERION OF THE DISPERSION TERM
 = 0.5620E-02(WHEN MIN. R.F.=1)  AT K=   3, I=   2, J=  32


     1 CALLS TO GCG PACKAGE FOR TRANSPORT TIME STEP   1 IN FLOW TIME STEP   9 STRESS PERIOD   2
    18 TOTAL ITERATIONS

 NO OUTPUT CONTROL FOR STRESS PERIOD    2   TIME STEP   9
0WARNING: NUMERICAL OSCILLATION ENCOUNTERED
 ONE OR MORE CELL CONCENTRATIONS LESS THAN CRHOREF
 SMALLEST DENSITY =  0.100E+04
 AT CELL (I,J,K) = (   1,  63,  23)

 
 SOLVING FOR HEAD 
 FLOW MODEL IS TRANSIENT
 FLOW MODEL CONTAINS CONSTANT-HEAD CELLS


 MAXIMUM STEPSIZE DURING WHICH ANY PARTICLE CANNOT MOVE MORE THAN ONE CELL
 = 0.1191    (WHEN MIN. R.F.=1)  AT K=   3, I=   2, J=  33

 MAXIMUM STEPSIZE WHICH MEETS STABILITY CRITERION OF THE ADVECTION TERM
 (FOR PURE FINITE-DIFFERENCE OPTION, MIXELM=0) 
 = 0.8158E-01(WHEN MIN. R.F.=1)  AT K=   3, I=   2, J=  32


 TOTAL NUMBER OF POINT SOURCES/SINKS PRESENT IN THE FLOW MODEL =   240

 MAXIMUM STEPSIZE WHICH MEETS STABILITY CRITERION OF THE SINK & SOURCE TERM
 = 0.1000E+31(WHEN MIN. R.F.=1)  AT K=   0, I=   0, J=   0

 MAXIMUM STEPSIZE WHICH MEETS STABILITY CRITERION OF THE DISPERSION TERM
 = 0.5620E-02(WHEN MIN. R.F.=1)  AT K=   3, I=   2, J=  32
     1 CALLS TO GCG PACKAGE FOR TRANSPORT TIME STEP   2 IN FLOW TIME STEP   9 STRESS PERIOD   2
    18 TOTAL ITERATIONS
0WARNING: NUMERICAL OSCILLATION ENCOUNTERED
 ONE OR MORE CELL CONCENTRATIONS LESS THAN CRHOREF
 SMALLEST DENSITY =  0.100E+04
 AT CELL (I,J,K) = (   1,  63,  23)

 
 SOLVING FOR HEAD 
 FLOW MODEL IS TRANSIENT
 FLOW MODEL CONTAINS CONSTANT-HEAD CELLS


 MAXIMUM STEPSIZE DURING WHICH ANY PARTICLE CANNOT MOVE MORE THAN ONE CELL
 = 0.1191    (WHEN MIN. R.F.=1)  AT K=   3, I=   2, J=  33

 MAXIMUM STEPSIZE WHICH MEETS STABILITY CRITERION OF THE ADVECTION TERM
 (FOR PURE FINITE-DIFFERENCE OPTION, MIXELM=0) 
 = 0.8158E-01(WHEN MIN. R.F.=1)  AT K=   3, I=   2, J=  32


 TOTAL NUMBER OF POINT SOURCES/SINKS PRESENT IN THE FLOW MODEL =   240

 MAXIMUM STEPSIZE WHICH MEETS STABILITY CRITERION OF THE SINK & SOURCE TERM
 = 0.1000E+31(WHEN MIN. R.F.=1)  AT K=   0, I=   0, J=   0

 MAXIMUM STEPSIZE WHICH MEETS STABILITY CRITERION OF THE DISPERSION TERM
 = 0.5620E-02(WHEN MIN. R.F.=1)  AT K=   3, I=   2, J=  32
     1 CALLS TO GCG PACKAGE FOR TRANSPORT TIME STEP   3 IN FLOW TIME STEP   9 STRESS PERIOD   2
    18 TOTAL ITERATIONS
0WARNING: NUMERICAL OSCILLATION ENCOUNTERED
 ONE OR MORE CELL CONCENTRATIONS LESS THAN CRHOREF
 SMALLEST DENSITY =  0.100E+04
 AT CELL (I,J,K) = (   1,  63,  23)

 
 SOLVING FOR HEAD 
 FLOW MODEL IS TRANSIENT
 FLOW MODEL CONTAINS CONSTANT-HEAD CELLS


 MAXIMUM STEPSIZE DURING WHICH ANY PARTICLE CANNOT MOVE MORE THAN ONE CELL
 = 0.1191    (WHEN MIN. R.F.=1)  AT K=   3, I=   2, J=  33

 MAXIMUM STEPSIZE WHICH MEETS STABILITY CRITERION OF THE ADVECTION TERM
 (FOR PURE FINITE-DIFFERENCE OPTION, MIXELM=0) 
 = 0.8158E-01(WHEN MIN. R.F.=1)  AT K=   3, I=   2, J=  32


 TOTAL NUMBER OF POINT SOURCES/SINKS PRESENT IN THE FLOW MODEL =   240

 MAXIMUM STEPSIZE WHICH MEETS STABILITY CRITERION OF THE SINK & SOURCE TERM
 = 0.1000E+31(WHEN MIN. R.F.=1)  AT K=   0, I=   0, J=   0

 MAXIMUM STEPSIZE WHICH MEETS STABILITY CRITERION OF THE DISPERSION TERM
 = 0.5620E-02(WHEN MIN. R.F.=1)  AT K=   3, I=   2, J=  32
     1 CALLS TO GCG PACKAGE FOR TRANSPORT TIME STEP   4 IN FLOW TIME STEP   9 STRESS PERIOD   2
    18 TOTAL ITERATIONS
0WARNING: NUMERICAL OSCILLATION ENCOUNTERED
 ONE OR MORE CELL CONCENTRATIONS LESS THAN CRHOREF
 SMALLEST DENSITY =  0.100E+04
 AT CELL (I,J,K) = (   1,  63,  23)

 
 SOLVING FOR HEAD 
 FLOW MODEL IS TRANSIENT
 FLOW MODEL CONTAINS CONSTANT-HEAD CELLS


 MAXIMUM STEPSIZE DURING WHICH ANY PARTICLE CANNOT MOVE MORE THAN ONE CELL
 = 0.1191    (WHEN MIN. R.F.=1)  AT K=   3, I=   2, J=  33

 MAXIMUM STEPSIZE WHICH MEETS STABILITY CRITERION OF THE ADVECTION TERM
 (FOR PURE FINITE-DIFFERENCE OPTION, MIXELM=0) 
 = 0.8158E-01(WHEN MIN. R.F.=1)  AT K=   3, I=   2, J=  32


 TOTAL NUMBER OF POINT SOURCES/SINKS PRESENT IN THE FLOW MODEL =   240

 MAXIMUM STEPSIZE WHICH MEETS STABILITY CRITERION OF THE SINK & SOURCE TERM
 = 0.1000E+31(WHEN MIN. R.F.=1)  AT K=   0, I=   0, J=   0

 MAXIMUM STEPSIZE WHICH MEETS STABILITY CRITERION OF THE DISPERSION TERM
 = 0.5620E-02(WHEN MIN. R.F.=1)  AT K=   3, I=   2, J=  32
     1 CALLS TO GCG PACKAGE FOR TRANSPORT TIME STEP   5 IN FLOW TIME STEP   9 STRESS PERIOD   2
    18 TOTAL ITERATIONS
0WARNING: NUMERICAL OSCILLATION ENCOUNTERED
 ONE OR MORE CELL CONCENTRATIONS LESS THAN CRHOREF
 SMALLEST DENSITY =  0.100E+04
 AT CELL (I,J,K) = (   1,  64,  23)

 
 SOLVING FOR HEAD 
 FLOW MODEL IS TRANSIENT
 FLOW MODEL CONTAINS CONSTANT-HEAD CELLS


 MAXIMUM STEPSIZE DURING WHICH ANY PARTICLE CANNOT MOVE MORE THAN ONE CELL
 = 0.1191    (WHEN MIN. R.F.=1)  AT K=   3, I=   2, J=  33

 MAXIMUM STEPSIZE WHICH MEETS STABILITY CRITERION OF THE ADVECTION TERM
 (FOR PURE FINITE-DIFFERENCE OPTION, MIXELM=0) 
 = 0.8158E-01(WHEN MIN. R.F.=1)  AT K=   3, I=   2, J=  32


 TOTAL NUMBER OF POINT SOURCES/SINKS PRESENT IN THE FLOW MODEL =   240

 MAXIMUM STEPSIZE WHICH MEETS STABILITY CRITERION OF THE SINK & SOURCE TERM
 = 0.1000E+31(WHEN MIN. R.F.=1)  AT K=   0, I=   0, J=   0

 MAXIMUM STEPSIZE WHICH MEETS STABILITY CRITERION OF THE DISPERSION TERM
 = 0.5620E-02(WHEN MIN. R.F.=1)  AT K=   3, I=   2, J=  32
     1 CALLS TO GCG PACKAGE FOR TRANSPORT TIME STEP   6 IN FLOW TIME STEP   9 STRESS PERIOD   2
    18 TOTAL ITERATIONS
0WARNING: NUMERICAL OSCILLATION ENCOUNTERED
 ONE OR MORE CELL CONCENTRATIONS LESS THAN CRHOREF
 SMALLEST DENSITY =  0.100E+04
 AT CELL (I,J,K) = (   1,  64,  23)

 
 SOLVING FOR HEAD 
 FLOW MODEL IS TRANSIENT
 FLOW MODEL CONTAINS CONSTANT-HEAD CELLS


 MAXIMUM STEPSIZE DURING WHICH ANY PARTICLE CANNOT MOVE MORE THAN ONE CELL
 = 0.1191    (WHEN MIN. R.F.=1)  AT K=   3, I=   2, J=  33

 MAXIMUM STEPSIZE WHICH MEETS STABILITY CRITERION OF THE ADVECTION TERM
 (FOR PURE FINITE-DIFFERENCE OPTION, MIXELM=0) 
 = 0.8158E-01(WHEN MIN. R.F.=1)  AT K=   3, I=   2, J=  32


 TOTAL NUMBER OF POINT SOURCES/SINKS PRESENT IN THE FLOW MODEL =   240

 MAXIMUM STEPSIZE WHICH MEETS STABILITY CRITERION OF THE SINK & SOURCE TERM
 = 0.1000E+31(WHEN MIN. R.F.=1)  AT K=   0, I=   0, J=   0

 MAXIMUM STEPSIZE WHICH MEETS STABILITY CRITERION OF THE DISPERSION TERM
 = 0.5620E-02(WHEN MIN. R.F.=1)  AT K=   3, I=   2, J=  32
     1 CALLS TO GCG PACKAGE FOR TRANSPORT TIME STEP   7 IN FLOW TIME STEP   9 STRESS PERIOD   2
    18 TOTAL ITERATIONS
0WARNING: NUMERICAL OSCILLATION ENCOUNTERED
 ONE OR MORE CELL CONCENTRATIONS LESS THAN CRHOREF
 SMALLEST DENSITY =  0.100E+04
 AT CELL (I,J,K) = (   1,  64,  23)

 
 SOLVING FOR HEAD 
 FLOW MODEL IS TRANSIENT
 FLOW MODEL CONTAINS CONSTANT-HEAD CELLS


 MAXIMUM STEPSIZE DURING WHICH ANY PARTICLE CANNOT MOVE MORE THAN ONE CELL
 = 0.1191    (WHEN MIN. R.F.=1)  AT K=   3, I=   2, J=  33

 MAXIMUM STEPSIZE WHICH MEETS STABILITY CRITERION OF THE ADVECTION TERM
 (FOR PURE FINITE-DIFFERENCE OPTION, MIXELM=0) 
 = 0.8158E-01(WHEN MIN. R.F.=1)  AT K=   3, I=   2, J=  32


 TOTAL NUMBER OF POINT SOURCES/SINKS PRESENT IN THE FLOW MODEL =   240

 MAXIMUM STEPSIZE WHICH MEETS STABILITY CRITERION OF THE SINK & SOURCE TERM
 = 0.1000E+31(WHEN MIN. R.F.=1)  AT K=   0, I=   0, J=   0

 MAXIMUM STEPSIZE WHICH MEETS STABILITY CRITERION OF THE DISPERSION TERM
 = 0.5620E-02(WHEN MIN. R.F.=1)  AT K=   3, I=   2, J=  32
     1 CALLS TO GCG PACKAGE FOR TRANSPORT TIME STEP   8 IN FLOW TIME STEP   9 STRESS PERIOD   2
    18 TOTAL ITERATIONS
0WARNING: NUMERICAL OSCILLATION ENCOUNTERED
 ONE OR MORE CELL CONCENTRATIONS LESS THAN CRHOREF
 SMALLEST DENSITY =  0.100E+04
 AT CELL (I,J,K) = (   1,  64,  23)

 
 SOLVING FOR HEAD 
 FLOW MODEL IS TRANSIENT
 FLOW MODEL CONTAINS CONSTANT-HEAD CELLS


 MAXIMUM STEPSIZE DURING WHICH ANY PARTICLE CANNOT MOVE MORE THAN ONE CELL
 = 0.1191    (WHEN MIN. R.F.=1)  AT K=   3, I=   2, J=  33

 MAXIMUM STEPSIZE WHICH MEETS STABILITY CRITERION OF THE ADVECTION TERM
 (FOR PURE FINITE-DIFFERENCE OPTION, MIXELM=0) 
 = 0.8158E-01(WHEN MIN. R.F.=1)  AT K=   3, I=   2, J=  32


 TOTAL NUMBER OF POINT SOURCES/SINKS PRESENT IN THE FLOW MODEL =   240

 MAXIMUM STEPSIZE WHICH MEETS STABILITY CRITERION OF THE SINK & SOURCE TERM
 = 0.1000E+31(WHEN MIN. R.F.=1)  AT K=   0, I=   0, J=   0

 MAXIMUM STEPSIZE WHICH MEETS STABILITY CRITERION OF THE DISPERSION TERM
 = 0.5620E-02(WHEN MIN. R.F.=1)  AT K=   3, I=   2, J=  32
     1 CALLS TO GCG PACKAGE FOR TRANSPORT TIME STEP   9 IN FLOW TIME STEP   9 STRESS PERIOD   2
    18 TOTAL ITERATIONS
0WARNING: NUMERICAL OSCILLATION ENCOUNTERED
 ONE OR MORE CELL CONCENTRATIONS LESS THAN CRHOREF
 SMALLEST DENSITY =  0.100E+04
 AT CELL (I,J,K) = (   1,  64,  23)

 
 SOLVING FOR HEAD 
 FLOW MODEL IS TRANSIENT
 FLOW MODEL CONTAINS CONSTANT-HEAD CELLS


 MAXIMUM STEPSIZE DURING WHICH ANY PARTICLE CANNOT MOVE MORE THAN ONE CELL
 = 0.1191    (WHEN MIN. R.F.=1)  AT K=   3, I=   2, J=  33

 MAXIMUM STEPSIZE WHICH MEETS STABILITY CRITERION OF THE ADVECTION TERM
 (FOR PURE FINITE-DIFFERENCE OPTION, MIXELM=0) 
 = 0.8158E-01(WHEN MIN. R.F.=1)  AT K=   3, I=   2, J=  32


 TOTAL NUMBER OF POINT SOURCES/SINKS PRESENT IN THE FLOW MODEL =   240

 MAXIMUM STEPSIZE WHICH MEETS STABILITY CRITERION OF THE SINK & SOURCE TERM
 = 0.1000E+31(WHEN MIN. R.F.=1)  AT K=   0, I=   0, J=   0

 MAXIMUM STEPSIZE WHICH MEETS STABILITY CRITERION OF THE DISPERSION TERM
 = 0.5620E-02(WHEN MIN. R.F.=1)  AT K=   3, I=   2, J=  32
     1 CALLS TO GCG PACKAGE FOR TRANSPORT TIME STEP  10 IN FLOW TIME STEP   9 STRESS PERIOD   2
    18 TOTAL ITERATIONS



 >>>>>>>>>>>>>>>>>>>>>>>>>>>>>>>>>>>>>>>>>>>>>>>>>>>>>>>FOR COMPONENT NO. 01<<<<<<<<<<<<<<<<<<<<<<<<<<<<<<<<<<<<<<<<<<<<<<<<<<<<<<<


                                            -------------------------------------------
                                                      TRANSPORT STEP NO.   10
                                            -------------------------------------------

 TOTAL ELAPSED TIME SINCE BEGINNING OF SIMULATION =   9.893009    D   
 .....................................................................

                     CUMULATIVE MASS BUDGETS AT END OF TRANSPORT STEP   10, TIME STEP    9, STRESS PERIOD    2
                     ------------------------------------------------------------------------------------------

                                                             IN                           OUT
                                                      ----------------             ----------------
                               CONSTANT CONCENTRATION:    3095.853                   -648.8689    
                                        CONSTANT HEAD:    0.000000                    0.000000    
                               MASS STOR (FLOW MODEL):   0.1187431E-01              -0.2445057E-02
                                MASS STORAGE (SOLUTE):   0.5620034E-06               -2446.994    
                            ---------------------------------------------------------------------------
                                              [TOTAL]:    3095.865     KG            -3095.865     KG  

                                                          NET (IN - OUT):  -0.3585009E-03
                                                   DISCREPANCY (PERCENT):  -0.1157999E-04
0WARNING: NUMERICAL OSCILLATION ENCOUNTERED
 ONE OR MORE CELL CONCENTRATIONS LESS THAN CRHOREF
 SMALLEST DENSITY =  0.100E+04
 AT CELL (I,J,K) = (   1,  64,  23)

 
 SOLVING FOR HEAD 
 FLOW MODEL IS TRANSIENT
 FLOW MODEL CONTAINS CONSTANT-HEAD CELLS


 MAXIMUM STEPSIZE DURING WHICH ANY PARTICLE CANNOT MOVE MORE THAN ONE CELL
 = 0.1191    (WHEN MIN. R.F.=1)  AT K=   3, I=   2, J=  33

 MAXIMUM STEPSIZE WHICH MEETS STABILITY CRITERION OF THE ADVECTION TERM
 (FOR PURE FINITE-DIFFERENCE OPTION, MIXELM=0) 
 = 0.8158E-01(WHEN MIN. R.F.=1)  AT K=   3, I=   2, J=  32


 TOTAL NUMBER OF POINT SOURCES/SINKS PRESENT IN THE FLOW MODEL =   240

 MAXIMUM STEPSIZE WHICH MEETS STABILITY CRITERION OF THE SINK & SOURCE TERM
 = 0.1000E+31(WHEN MIN. R.F.=1)  AT K=   0, I=   0, J=   0

 MAXIMUM STEPSIZE WHICH MEETS STABILITY CRITERION OF THE DISPERSION TERM
 = 0.5620E-02(WHEN MIN. R.F.=1)  AT K=   3, I=   2, J=  32
     1 CALLS TO GCG PACKAGE FOR TRANSPORT TIME STEP  11 IN FLOW TIME STEP   9 STRESS PERIOD   2
    18 TOTAL ITERATIONS
0WARNING: NUMERICAL OSCILLATION ENCOUNTERED
 ONE OR MORE CELL CONCENTRATIONS LESS THAN CRHOREF
 SMALLEST DENSITY =  0.100E+04
 AT CELL (I,J,K) = (   1,  64,  23)

 
 SOLVING FOR HEAD 
 FLOW MODEL IS TRANSIENT
 FLOW MODEL CONTAINS CONSTANT-HEAD CELLS


 MAXIMUM STEPSIZE DURING WHICH ANY PARTICLE CANNOT MOVE MORE THAN ONE CELL
 = 0.1191    (WHEN MIN. R.F.=1)  AT K=   3, I=   2, J=  33

 MAXIMUM STEPSIZE WHICH MEETS STABILITY CRITERION OF THE ADVECTION TERM
 (FOR PURE FINITE-DIFFERENCE OPTION, MIXELM=0) 
 = 0.8158E-01(WHEN MIN. R.F.=1)  AT K=   3, I=   2, J=  32


 TOTAL NUMBER OF POINT SOURCES/SINKS PRESENT IN THE FLOW MODEL =   240

 MAXIMUM STEPSIZE WHICH MEETS STABILITY CRITERION OF THE SINK & SOURCE TERM
 = 0.1000E+31(WHEN MIN. R.F.=1)  AT K=   0, I=   0, J=   0

 MAXIMUM STEPSIZE WHICH MEETS STABILITY CRITERION OF THE DISPERSION TERM
 = 0.5620E-02(WHEN MIN. R.F.=1)  AT K=   3, I=   2, J=  32
     1 CALLS TO GCG PACKAGE FOR TRANSPORT TIME STEP  12 IN FLOW TIME STEP   9 STRESS PERIOD   2
     9 TOTAL ITERATIONS
  MAXIMUM CONCENTRATION CHANGES FOR EACH ITERATION:
  MAX. CHANGE LAYER,ROW,COL MAX. CHANGE LAYER,ROW,COL MAX. CHANGE LAYER,ROW,COL MAX. CHANGE LAYER,ROW,COL MAX. CHANGE LAYER,ROW,COL
 ------------------------------------------------------------------------------------------------------------------------------------
   0.8421E-03 ( 11,  3, 51)  0.1433E-03 (  6,  2, 57)  0.2685E-04 (  4,  1, 36)  0.1539E-04 (  3,  2, 33)  0.6398E-05 (  4,  2, 33)
   0.2236E-05 (  3,  2, 33)  0.5855E-06 (  3,  2, 34)  0.1935E-06 (  2,  2, 34)  0.5263E-07 (  3,  2, 34)
0WARNING: NUMERICAL OSCILLATION ENCOUNTERED
 ONE OR MORE CELL CONCENTRATIONS LESS THAN CRHOREF
 SMALLEST DENSITY =  0.100E+04
 AT CELL (I,J,K) = (   1,  64,  23)



                                          ================================================
                                                         FROM TIME =  10.0000     TO    11.000    

 
 SOLVING FOR HEAD 
 FLOW MODEL IS TRANSIENT
 FLOW MODEL CONTAINS CONSTANT-HEAD CELLS


 MAXIMUM STEPSIZE DURING WHICH ANY PARTICLE CANNOT MOVE MORE THAN ONE CELL
 = 0.1191    (WHEN MIN. R.F.=1)  AT K=   3, I=   2, J=  33

 MAXIMUM STEPSIZE WHICH MEETS STABILITY CRITERION OF THE ADVECTION TERM
 (FOR PURE FINITE-DIFFERENCE OPTION, MIXELM=0) 
 = 0.8158E-01(WHEN MIN. R.F.=1)  AT K=   3, I=   2, J=  32


 TOTAL NUMBER OF POINT SOURCES/SINKS PRESENT IN THE FLOW MODEL =   240

 MAXIMUM STEPSIZE WHICH MEETS STABILITY CRITERION OF THE SINK & SOURCE TERM
 = 0.1000E+31(WHEN MIN. R.F.=1)  AT K=   0, I=   0, J=   0

 MAXIMUM STEPSIZE WHICH MEETS STABILITY CRITERION OF THE DISPERSION TERM
 = 0.5620E-02(WHEN MIN. R.F.=1)  AT K=   3, I=   2, J=  32


     1 CALLS TO GCG PACKAGE FOR TRANSPORT TIME STEP   1 IN FLOW TIME STEP  10 STRESS PERIOD   2
    18 TOTAL ITERATIONS

 NO OUTPUT CONTROL FOR STRESS PERIOD    2   TIME STEP  10
0WARNING: NUMERICAL OSCILLATION ENCOUNTERED
 ONE OR MORE CELL CONCENTRATIONS LESS THAN CRHOREF
 SMALLEST DENSITY =  0.100E+04
 AT CELL (I,J,K) = (   1,  64,  23)

 
 SOLVING FOR HEAD 
 FLOW MODEL IS TRANSIENT
 FLOW MODEL CONTAINS CONSTANT-HEAD CELLS


 MAXIMUM STEPSIZE DURING WHICH ANY PARTICLE CANNOT MOVE MORE THAN ONE CELL
 = 0.1191    (WHEN MIN. R.F.=1)  AT K=   3, I=   2, J=  33

 MAXIMUM STEPSIZE WHICH MEETS STABILITY CRITERION OF THE ADVECTION TERM
 (FOR PURE FINITE-DIFFERENCE OPTION, MIXELM=0) 
 = 0.8158E-01(WHEN MIN. R.F.=1)  AT K=   3, I=   2, J=  32


 TOTAL NUMBER OF POINT SOURCES/SINKS PRESENT IN THE FLOW MODEL =   240

 MAXIMUM STEPSIZE WHICH MEETS STABILITY CRITERION OF THE SINK & SOURCE TERM
 = 0.1000E+31(WHEN MIN. R.F.=1)  AT K=   0, I=   0, J=   0

 MAXIMUM STEPSIZE WHICH MEETS STABILITY CRITERION OF THE DISPERSION TERM
 = 0.5620E-02(WHEN MIN. R.F.=1)  AT K=   3, I=   2, J=  32
     1 CALLS TO GCG PACKAGE FOR TRANSPORT TIME STEP   2 IN FLOW TIME STEP  10 STRESS PERIOD   2
    18 TOTAL ITERATIONS
0WARNING: NUMERICAL OSCILLATION ENCOUNTERED
 ONE OR MORE CELL CONCENTRATIONS LESS THAN CRHOREF
 SMALLEST DENSITY =  0.100E+04
 AT CELL (I,J,K) = (   1,  64,  23)

 
 SOLVING FOR HEAD 
 FLOW MODEL IS TRANSIENT
 FLOW MODEL CONTAINS CONSTANT-HEAD CELLS


 MAXIMUM STEPSIZE DURING WHICH ANY PARTICLE CANNOT MOVE MORE THAN ONE CELL
 = 0.1191    (WHEN MIN. R.F.=1)  AT K=   3, I=   2, J=  33

 MAXIMUM STEPSIZE WHICH MEETS STABILITY CRITERION OF THE ADVECTION TERM
 (FOR PURE FINITE-DIFFERENCE OPTION, MIXELM=0) 
 = 0.8158E-01(WHEN MIN. R.F.=1)  AT K=   3, I=   2, J=  32


 TOTAL NUMBER OF POINT SOURCES/SINKS PRESENT IN THE FLOW MODEL =   240

 MAXIMUM STEPSIZE WHICH MEETS STABILITY CRITERION OF THE SINK & SOURCE TERM
 = 0.1000E+31(WHEN MIN. R.F.=1)  AT K=   0, I=   0, J=   0

 MAXIMUM STEPSIZE WHICH MEETS STABILITY CRITERION OF THE DISPERSION TERM
 = 0.5620E-02(WHEN MIN. R.F.=1)  AT K=   3, I=   2, J=  32
     1 CALLS TO GCG PACKAGE FOR TRANSPORT TIME STEP   3 IN FLOW TIME STEP  10 STRESS PERIOD   2
    18 TOTAL ITERATIONS
0WARNING: NUMERICAL OSCILLATION ENCOUNTERED
 ONE OR MORE CELL CONCENTRATIONS LESS THAN CRHOREF
 SMALLEST DENSITY =  0.100E+04
 AT CELL (I,J,K) = (   1,  64,  23)

 
 SOLVING FOR HEAD 
 FLOW MODEL IS TRANSIENT
 FLOW MODEL CONTAINS CONSTANT-HEAD CELLS


 MAXIMUM STEPSIZE DURING WHICH ANY PARTICLE CANNOT MOVE MORE THAN ONE CELL
 = 0.1191    (WHEN MIN. R.F.=1)  AT K=   3, I=   2, J=  33

 MAXIMUM STEPSIZE WHICH MEETS STABILITY CRITERION OF THE ADVECTION TERM
 (FOR PURE FINITE-DIFFERENCE OPTION, MIXELM=0) 
 = 0.8158E-01(WHEN MIN. R.F.=1)  AT K=   3, I=   2, J=  32


 TOTAL NUMBER OF POINT SOURCES/SINKS PRESENT IN THE FLOW MODEL =   240

 MAXIMUM STEPSIZE WHICH MEETS STABILITY CRITERION OF THE SINK & SOURCE TERM
 = 0.1000E+31(WHEN MIN. R.F.=1)  AT K=   0, I=   0, J=   0

 MAXIMUM STEPSIZE WHICH MEETS STABILITY CRITERION OF THE DISPERSION TERM
 = 0.5620E-02(WHEN MIN. R.F.=1)  AT K=   3, I=   2, J=  32
     1 CALLS TO GCG PACKAGE FOR TRANSPORT TIME STEP   4 IN FLOW TIME STEP  10 STRESS PERIOD   2
    18 TOTAL ITERATIONS
0WARNING: NUMERICAL OSCILLATION ENCOUNTERED
 ONE OR MORE CELL CONCENTRATIONS LESS THAN CRHOREF
 SMALLEST DENSITY =  0.100E+04
 AT CELL (I,J,K) = (   1,  65,  23)

 
 SOLVING FOR HEAD 
 FLOW MODEL IS TRANSIENT
 FLOW MODEL CONTAINS CONSTANT-HEAD CELLS


 MAXIMUM STEPSIZE DURING WHICH ANY PARTICLE CANNOT MOVE MORE THAN ONE CELL
 = 0.1191    (WHEN MIN. R.F.=1)  AT K=   3, I=   2, J=  33

 MAXIMUM STEPSIZE WHICH MEETS STABILITY CRITERION OF THE ADVECTION TERM
 (FOR PURE FINITE-DIFFERENCE OPTION, MIXELM=0) 
 = 0.8158E-01(WHEN MIN. R.F.=1)  AT K=   3, I=   2, J=  32


 TOTAL NUMBER OF POINT SOURCES/SINKS PRESENT IN THE FLOW MODEL =   240

 MAXIMUM STEPSIZE WHICH MEETS STABILITY CRITERION OF THE SINK & SOURCE TERM
 = 0.1000E+31(WHEN MIN. R.F.=1)  AT K=   0, I=   0, J=   0

 MAXIMUM STEPSIZE WHICH MEETS STABILITY CRITERION OF THE DISPERSION TERM
 = 0.5620E-02(WHEN MIN. R.F.=1)  AT K=   3, I=   2, J=  32
     1 CALLS TO GCG PACKAGE FOR TRANSPORT TIME STEP   5 IN FLOW TIME STEP  10 STRESS PERIOD   2
    18 TOTAL ITERATIONS
0WARNING: NUMERICAL OSCILLATION ENCOUNTERED
 ONE OR MORE CELL CONCENTRATIONS LESS THAN CRHOREF
 SMALLEST DENSITY =  0.100E+04
 AT CELL (I,J,K) = (   1,  65,  23)

 
 SOLVING FOR HEAD 
 FLOW MODEL IS TRANSIENT
 FLOW MODEL CONTAINS CONSTANT-HEAD CELLS


 MAXIMUM STEPSIZE DURING WHICH ANY PARTICLE CANNOT MOVE MORE THAN ONE CELL
 = 0.1191    (WHEN MIN. R.F.=1)  AT K=   3, I=   2, J=  33

 MAXIMUM STEPSIZE WHICH MEETS STABILITY CRITERION OF THE ADVECTION TERM
 (FOR PURE FINITE-DIFFERENCE OPTION, MIXELM=0) 
 = 0.8158E-01(WHEN MIN. R.F.=1)  AT K=   3, I=   2, J=  32


 TOTAL NUMBER OF POINT SOURCES/SINKS PRESENT IN THE FLOW MODEL =   240

 MAXIMUM STEPSIZE WHICH MEETS STABILITY CRITERION OF THE SINK & SOURCE TERM
 = 0.1000E+31(WHEN MIN. R.F.=1)  AT K=   0, I=   0, J=   0

 MAXIMUM STEPSIZE WHICH MEETS STABILITY CRITERION OF THE DISPERSION TERM
 = 0.5620E-02(WHEN MIN. R.F.=1)  AT K=   3, I=   2, J=  32
     1 CALLS TO GCG PACKAGE FOR TRANSPORT TIME STEP   6 IN FLOW TIME STEP  10 STRESS PERIOD   2
    18 TOTAL ITERATIONS
0WARNING: NUMERICAL OSCILLATION ENCOUNTERED
 ONE OR MORE CELL CONCENTRATIONS LESS THAN CRHOREF
 SMALLEST DENSITY =  0.100E+04
 AT CELL (I,J,K) = (   1,  65,  23)

 
 SOLVING FOR HEAD 
 FLOW MODEL IS TRANSIENT
 FLOW MODEL CONTAINS CONSTANT-HEAD CELLS


 MAXIMUM STEPSIZE DURING WHICH ANY PARTICLE CANNOT MOVE MORE THAN ONE CELL
 = 0.1191    (WHEN MIN. R.F.=1)  AT K=   3, I=   2, J=  33

 MAXIMUM STEPSIZE WHICH MEETS STABILITY CRITERION OF THE ADVECTION TERM
 (FOR PURE FINITE-DIFFERENCE OPTION, MIXELM=0) 
 = 0.8158E-01(WHEN MIN. R.F.=1)  AT K=   3, I=   2, J=  32


 TOTAL NUMBER OF POINT SOURCES/SINKS PRESENT IN THE FLOW MODEL =   240

 MAXIMUM STEPSIZE WHICH MEETS STABILITY CRITERION OF THE SINK & SOURCE TERM
 = 0.1000E+31(WHEN MIN. R.F.=1)  AT K=   0, I=   0, J=   0

 MAXIMUM STEPSIZE WHICH MEETS STABILITY CRITERION OF THE DISPERSION TERM
 = 0.5620E-02(WHEN MIN. R.F.=1)  AT K=   3, I=   2, J=  32
     1 CALLS TO GCG PACKAGE FOR TRANSPORT TIME STEP   7 IN FLOW TIME STEP  10 STRESS PERIOD   2
    18 TOTAL ITERATIONS
0WARNING: NUMERICAL OSCILLATION ENCOUNTERED
 ONE OR MORE CELL CONCENTRATIONS LESS THAN CRHOREF
 SMALLEST DENSITY =  0.100E+04
 AT CELL (I,J,K) = (   1,  65,  23)

 
 SOLVING FOR HEAD 
 FLOW MODEL IS TRANSIENT
 FLOW MODEL CONTAINS CONSTANT-HEAD CELLS


 MAXIMUM STEPSIZE DURING WHICH ANY PARTICLE CANNOT MOVE MORE THAN ONE CELL
 = 0.1191    (WHEN MIN. R.F.=1)  AT K=   3, I=   2, J=  33

 MAXIMUM STEPSIZE WHICH MEETS STABILITY CRITERION OF THE ADVECTION TERM
 (FOR PURE FINITE-DIFFERENCE OPTION, MIXELM=0) 
 = 0.8158E-01(WHEN MIN. R.F.=1)  AT K=   3, I=   2, J=  32


 TOTAL NUMBER OF POINT SOURCES/SINKS PRESENT IN THE FLOW MODEL =   240

 MAXIMUM STEPSIZE WHICH MEETS STABILITY CRITERION OF THE SINK & SOURCE TERM
 = 0.1000E+31(WHEN MIN. R.F.=1)  AT K=   0, I=   0, J=   0

 MAXIMUM STEPSIZE WHICH MEETS STABILITY CRITERION OF THE DISPERSION TERM
 = 0.5620E-02(WHEN MIN. R.F.=1)  AT K=   3, I=   2, J=  32
     1 CALLS TO GCG PACKAGE FOR TRANSPORT TIME STEP   8 IN FLOW TIME STEP  10 STRESS PERIOD   2
    18 TOTAL ITERATIONS
0WARNING: NUMERICAL OSCILLATION ENCOUNTERED
 ONE OR MORE CELL CONCENTRATIONS LESS THAN CRHOREF
 SMALLEST DENSITY =  0.100E+04
 AT CELL (I,J,K) = (   1,  65,  23)

 
 SOLVING FOR HEAD 
 FLOW MODEL IS TRANSIENT
 FLOW MODEL CONTAINS CONSTANT-HEAD CELLS


 MAXIMUM STEPSIZE DURING WHICH ANY PARTICLE CANNOT MOVE MORE THAN ONE CELL
 = 0.1191    (WHEN MIN. R.F.=1)  AT K=   3, I=   2, J=  33

 MAXIMUM STEPSIZE WHICH MEETS STABILITY CRITERION OF THE ADVECTION TERM
 (FOR PURE FINITE-DIFFERENCE OPTION, MIXELM=0) 
 = 0.8158E-01(WHEN MIN. R.F.=1)  AT K=   3, I=   2, J=  32


 TOTAL NUMBER OF POINT SOURCES/SINKS PRESENT IN THE FLOW MODEL =   240

 MAXIMUM STEPSIZE WHICH MEETS STABILITY CRITERION OF THE SINK & SOURCE TERM
 = 0.1000E+31(WHEN MIN. R.F.=1)  AT K=   0, I=   0, J=   0

 MAXIMUM STEPSIZE WHICH MEETS STABILITY CRITERION OF THE DISPERSION TERM
 = 0.5620E-02(WHEN MIN. R.F.=1)  AT K=   3, I=   2, J=  32
     1 CALLS TO GCG PACKAGE FOR TRANSPORT TIME STEP   9 IN FLOW TIME STEP  10 STRESS PERIOD   2
    18 TOTAL ITERATIONS
0WARNING: NUMERICAL OSCILLATION ENCOUNTERED
 ONE OR MORE CELL CONCENTRATIONS LESS THAN CRHOREF
 SMALLEST DENSITY =  0.100E+04
 AT CELL (I,J,K) = (   2,  64,  23)

 
 SOLVING FOR HEAD 
 FLOW MODEL IS TRANSIENT
 FLOW MODEL CONTAINS CONSTANT-HEAD CELLS


 MAXIMUM STEPSIZE DURING WHICH ANY PARTICLE CANNOT MOVE MORE THAN ONE CELL
 = 0.1191    (WHEN MIN. R.F.=1)  AT K=   3, I=   2, J=  33

 MAXIMUM STEPSIZE WHICH MEETS STABILITY CRITERION OF THE ADVECTION TERM
 (FOR PURE FINITE-DIFFERENCE OPTION, MIXELM=0) 
 = 0.8158E-01(WHEN MIN. R.F.=1)  AT K=   3, I=   2, J=  32


 TOTAL NUMBER OF POINT SOURCES/SINKS PRESENT IN THE FLOW MODEL =   240

 MAXIMUM STEPSIZE WHICH MEETS STABILITY CRITERION OF THE SINK & SOURCE TERM
 = 0.1000E+31(WHEN MIN. R.F.=1)  AT K=   0, I=   0, J=   0

 MAXIMUM STEPSIZE WHICH MEETS STABILITY CRITERION OF THE DISPERSION TERM
 = 0.5620E-02(WHEN MIN. R.F.=1)  AT K=   3, I=   2, J=  32
     1 CALLS TO GCG PACKAGE FOR TRANSPORT TIME STEP  10 IN FLOW TIME STEP  10 STRESS PERIOD   2
    18 TOTAL ITERATIONS



 >>>>>>>>>>>>>>>>>>>>>>>>>>>>>>>>>>>>>>>>>>>>>>>>>>>>>>>FOR COMPONENT NO. 01<<<<<<<<<<<<<<<<<<<<<<<<<<<<<<<<<<<<<<<<<<<<<<<<<<<<<<<


                                            -------------------------------------------
                                                      TRANSPORT STEP NO.   10
                                            -------------------------------------------

 TOTAL ELAPSED TIME SINCE BEGINNING OF SIMULATION =   10.89300    D   
 .....................................................................

                     CUMULATIVE MASS BUDGETS AT END OF TRANSPORT STEP   10, TIME STEP   10, STRESS PERIOD    2
                     ------------------------------------------------------------------------------------------

                                                             IN                           OUT
                                                      ----------------             ----------------
                               CONSTANT CONCENTRATION:    3300.121                   -733.3459    
                                        CONSTANT HEAD:    0.000000                    0.000000    
                               MASS STOR (FLOW MODEL):   0.1187943E-01              -0.2526816E-02
                                MASS STORAGE (SOLUTE):   0.5620034E-06               -2566.785    
                            ---------------------------------------------------------------------------
                                              [TOTAL]:    3300.133     KG            -3300.134     KG  

                                                          NET (IN - OUT):  -0.4201809E-03
                                                   DISCREPANCY (PERCENT):  -0.1273224E-04
0WARNING: NUMERICAL OSCILLATION ENCOUNTERED
 ONE OR MORE CELL CONCENTRATIONS LESS THAN CRHOREF
 SMALLEST DENSITY =  0.100E+04
 AT CELL (I,J,K) = (   2,  64,  23)

 
 SOLVING FOR HEAD 
 FLOW MODEL IS TRANSIENT
 FLOW MODEL CONTAINS CONSTANT-HEAD CELLS


 MAXIMUM STEPSIZE DURING WHICH ANY PARTICLE CANNOT MOVE MORE THAN ONE CELL
 = 0.1191    (WHEN MIN. R.F.=1)  AT K=   3, I=   2, J=  33

 MAXIMUM STEPSIZE WHICH MEETS STABILITY CRITERION OF THE ADVECTION TERM
 (FOR PURE FINITE-DIFFERENCE OPTION, MIXELM=0) 
 = 0.8158E-01(WHEN MIN. R.F.=1)  AT K=   3, I=   2, J=  32


 TOTAL NUMBER OF POINT SOURCES/SINKS PRESENT IN THE FLOW MODEL =   240

 MAXIMUM STEPSIZE WHICH MEETS STABILITY CRITERION OF THE SINK & SOURCE TERM
 = 0.1000E+31(WHEN MIN. R.F.=1)  AT K=   0, I=   0, J=   0

 MAXIMUM STEPSIZE WHICH MEETS STABILITY CRITERION OF THE DISPERSION TERM
 = 0.5620E-02(WHEN MIN. R.F.=1)  AT K=   3, I=   2, J=  32
     1 CALLS TO GCG PACKAGE FOR TRANSPORT TIME STEP  11 IN FLOW TIME STEP  10 STRESS PERIOD   2
    18 TOTAL ITERATIONS
0WARNING: NUMERICAL OSCILLATION ENCOUNTERED
 ONE OR MORE CELL CONCENTRATIONS LESS THAN CRHOREF
 SMALLEST DENSITY =  0.100E+04
 AT CELL (I,J,K) = (   1,  64,  24)

 
 SOLVING FOR HEAD 
 FLOW MODEL IS TRANSIENT
 FLOW MODEL CONTAINS CONSTANT-HEAD CELLS


 MAXIMUM STEPSIZE DURING WHICH ANY PARTICLE CANNOT MOVE MORE THAN ONE CELL
 = 0.1191    (WHEN MIN. R.F.=1)  AT K=   3, I=   2, J=  33

 MAXIMUM STEPSIZE WHICH MEETS STABILITY CRITERION OF THE ADVECTION TERM
 (FOR PURE FINITE-DIFFERENCE OPTION, MIXELM=0) 
 = 0.8158E-01(WHEN MIN. R.F.=1)  AT K=   3, I=   2, J=  32


 TOTAL NUMBER OF POINT SOURCES/SINKS PRESENT IN THE FLOW MODEL =   240

 MAXIMUM STEPSIZE WHICH MEETS STABILITY CRITERION OF THE SINK & SOURCE TERM
 = 0.1000E+31(WHEN MIN. R.F.=1)  AT K=   0, I=   0, J=   0

 MAXIMUM STEPSIZE WHICH MEETS STABILITY CRITERION OF THE DISPERSION TERM
 = 0.5620E-02(WHEN MIN. R.F.=1)  AT K=   3, I=   2, J=  32
     1 CALLS TO GCG PACKAGE FOR TRANSPORT TIME STEP  12 IN FLOW TIME STEP  10 STRESS PERIOD   2
     9 TOTAL ITERATIONS
  MAXIMUM CONCENTRATION CHANGES FOR EACH ITERATION:
  MAX. CHANGE LAYER,ROW,COL MAX. CHANGE LAYER,ROW,COL MAX. CHANGE LAYER,ROW,COL MAX. CHANGE LAYER,ROW,COL MAX. CHANGE LAYER,ROW,COL
 ------------------------------------------------------------------------------------------------------------------------------------
   0.7704E-03 ( 11,  3, 51)  0.1277E-03 (  6,  2, 57)  0.2252E-04 (  4,  1, 36)  0.1298E-04 (  3,  2, 33)  0.5408E-05 (  4,  2, 33)
   0.1905E-05 (  3,  2, 33)  0.4936E-06 (  3,  2, 34)  0.1655E-06 (  3,  2, 33)  0.4555E-07 (  3,  2, 34)
0WARNING: NUMERICAL OSCILLATION ENCOUNTERED
 ONE OR MORE CELL CONCENTRATIONS LESS THAN CRHOREF
 SMALLEST DENSITY =  0.100E+04
 AT CELL (I,J,K) = (   1,  64,  24)



                                          ================================================
                                                         FROM TIME =   11.000     TO    12.000    

 
 SOLVING FOR HEAD 
 FLOW MODEL IS TRANSIENT
 FLOW MODEL CONTAINS CONSTANT-HEAD CELLS


 MAXIMUM STEPSIZE DURING WHICH ANY PARTICLE CANNOT MOVE MORE THAN ONE CELL
 = 0.1191    (WHEN MIN. R.F.=1)  AT K=   3, I=   2, J=  33

 MAXIMUM STEPSIZE WHICH MEETS STABILITY CRITERION OF THE ADVECTION TERM
 (FOR PURE FINITE-DIFFERENCE OPTION, MIXELM=0) 
 = 0.8158E-01(WHEN MIN. R.F.=1)  AT K=   3, I=   2, J=  32


 TOTAL NUMBER OF POINT SOURCES/SINKS PRESENT IN THE FLOW MODEL =   240

 MAXIMUM STEPSIZE WHICH MEETS STABILITY CRITERION OF THE SINK & SOURCE TERM
 = 0.1000E+31(WHEN MIN. R.F.=1)  AT K=   0, I=   0, J=   0

 MAXIMUM STEPSIZE WHICH MEETS STABILITY CRITERION OF THE DISPERSION TERM
 = 0.5620E-02(WHEN MIN. R.F.=1)  AT K=   3, I=   2, J=  32


     1 CALLS TO GCG PACKAGE FOR TRANSPORT TIME STEP   1 IN FLOW TIME STEP  11 STRESS PERIOD   2
    18 TOTAL ITERATIONS

 NO OUTPUT CONTROL FOR STRESS PERIOD    2   TIME STEP  11
0WARNING: NUMERICAL OSCILLATION ENCOUNTERED
 ONE OR MORE CELL CONCENTRATIONS LESS THAN CRHOREF
 SMALLEST DENSITY =  0.100E+04
 AT CELL (I,J,K) = (   1,  64,  24)

 
 SOLVING FOR HEAD 
 FLOW MODEL IS TRANSIENT
 FLOW MODEL CONTAINS CONSTANT-HEAD CELLS


 MAXIMUM STEPSIZE DURING WHICH ANY PARTICLE CANNOT MOVE MORE THAN ONE CELL
 = 0.1191    (WHEN MIN. R.F.=1)  AT K=   3, I=   2, J=  33

 MAXIMUM STEPSIZE WHICH MEETS STABILITY CRITERION OF THE ADVECTION TERM
 (FOR PURE FINITE-DIFFERENCE OPTION, MIXELM=0) 
 = 0.8158E-01(WHEN MIN. R.F.=1)  AT K=   3, I=   2, J=  32


 TOTAL NUMBER OF POINT SOURCES/SINKS PRESENT IN THE FLOW MODEL =   240

 MAXIMUM STEPSIZE WHICH MEETS STABILITY CRITERION OF THE SINK & SOURCE TERM
 = 0.1000E+31(WHEN MIN. R.F.=1)  AT K=   0, I=   0, J=   0

 MAXIMUM STEPSIZE WHICH MEETS STABILITY CRITERION OF THE DISPERSION TERM
 = 0.5620E-02(WHEN MIN. R.F.=1)  AT K=   3, I=   2, J=  32
     1 CALLS TO GCG PACKAGE FOR TRANSPORT TIME STEP   2 IN FLOW TIME STEP  11 STRESS PERIOD   2
    18 TOTAL ITERATIONS
0WARNING: NUMERICAL OSCILLATION ENCOUNTERED
 ONE OR MORE CELL CONCENTRATIONS LESS THAN CRHOREF
 SMALLEST DENSITY =  0.100E+04
 AT CELL (I,J,K) = (   1,  64,  24)

 
 SOLVING FOR HEAD 
 FLOW MODEL IS TRANSIENT
 FLOW MODEL CONTAINS CONSTANT-HEAD CELLS


 MAXIMUM STEPSIZE DURING WHICH ANY PARTICLE CANNOT MOVE MORE THAN ONE CELL
 = 0.1191    (WHEN MIN. R.F.=1)  AT K=   3, I=   2, J=  33

 MAXIMUM STEPSIZE WHICH MEETS STABILITY CRITERION OF THE ADVECTION TERM
 (FOR PURE FINITE-DIFFERENCE OPTION, MIXELM=0) 
 = 0.8158E-01(WHEN MIN. R.F.=1)  AT K=   3, I=   2, J=  32


 TOTAL NUMBER OF POINT SOURCES/SINKS PRESENT IN THE FLOW MODEL =   240

 MAXIMUM STEPSIZE WHICH MEETS STABILITY CRITERION OF THE SINK & SOURCE TERM
 = 0.1000E+31(WHEN MIN. R.F.=1)  AT K=   0, I=   0, J=   0

 MAXIMUM STEPSIZE WHICH MEETS STABILITY CRITERION OF THE DISPERSION TERM
 = 0.5620E-02(WHEN MIN. R.F.=1)  AT K=   3, I=   2, J=  32
     1 CALLS TO GCG PACKAGE FOR TRANSPORT TIME STEP   3 IN FLOW TIME STEP  11 STRESS PERIOD   2
    18 TOTAL ITERATIONS
0WARNING: NUMERICAL OSCILLATION ENCOUNTERED
 ONE OR MORE CELL CONCENTRATIONS LESS THAN CRHOREF
 SMALLEST DENSITY =  0.100E+04
 AT CELL (I,J,K) = (   1,  64,  24)

 
 SOLVING FOR HEAD 
 FLOW MODEL IS TRANSIENT
 FLOW MODEL CONTAINS CONSTANT-HEAD CELLS


 MAXIMUM STEPSIZE DURING WHICH ANY PARTICLE CANNOT MOVE MORE THAN ONE CELL
 = 0.1191    (WHEN MIN. R.F.=1)  AT K=   3, I=   2, J=  33

 MAXIMUM STEPSIZE WHICH MEETS STABILITY CRITERION OF THE ADVECTION TERM
 (FOR PURE FINITE-DIFFERENCE OPTION, MIXELM=0) 
 = 0.8158E-01(WHEN MIN. R.F.=1)  AT K=   3, I=   2, J=  32


 TOTAL NUMBER OF POINT SOURCES/SINKS PRESENT IN THE FLOW MODEL =   240

 MAXIMUM STEPSIZE WHICH MEETS STABILITY CRITERION OF THE SINK & SOURCE TERM
 = 0.1000E+31(WHEN MIN. R.F.=1)  AT K=   0, I=   0, J=   0

 MAXIMUM STEPSIZE WHICH MEETS STABILITY CRITERION OF THE DISPERSION TERM
 = 0.5620E-02(WHEN MIN. R.F.=1)  AT K=   3, I=   2, J=  32
     1 CALLS TO GCG PACKAGE FOR TRANSPORT TIME STEP   4 IN FLOW TIME STEP  11 STRESS PERIOD   2
    18 TOTAL ITERATIONS
0WARNING: NUMERICAL OSCILLATION ENCOUNTERED
 ONE OR MORE CELL CONCENTRATIONS LESS THAN CRHOREF
 SMALLEST DENSITY =  0.100E+04
 AT CELL (I,J,K) = (   1,  64,  24)

 
 SOLVING FOR HEAD 
 FLOW MODEL IS TRANSIENT
 FLOW MODEL CONTAINS CONSTANT-HEAD CELLS


 MAXIMUM STEPSIZE DURING WHICH ANY PARTICLE CANNOT MOVE MORE THAN ONE CELL
 = 0.1191    (WHEN MIN. R.F.=1)  AT K=   3, I=   2, J=  33

 MAXIMUM STEPSIZE WHICH MEETS STABILITY CRITERION OF THE ADVECTION TERM
 (FOR PURE FINITE-DIFFERENCE OPTION, MIXELM=0) 
 = 0.8158E-01(WHEN MIN. R.F.=1)  AT K=   3, I=   2, J=  32


 TOTAL NUMBER OF POINT SOURCES/SINKS PRESENT IN THE FLOW MODEL =   240

 MAXIMUM STEPSIZE WHICH MEETS STABILITY CRITERION OF THE SINK & SOURCE TERM
 = 0.1000E+31(WHEN MIN. R.F.=1)  AT K=   0, I=   0, J=   0

 MAXIMUM STEPSIZE WHICH MEETS STABILITY CRITERION OF THE DISPERSION TERM
 = 0.5620E-02(WHEN MIN. R.F.=1)  AT K=   3, I=   2, J=  32
     1 CALLS TO GCG PACKAGE FOR TRANSPORT TIME STEP   5 IN FLOW TIME STEP  11 STRESS PERIOD   2
    18 TOTAL ITERATIONS
0WARNING: NUMERICAL OSCILLATION ENCOUNTERED
 ONE OR MORE CELL CONCENTRATIONS LESS THAN CRHOREF
 SMALLEST DENSITY =  0.100E+04
 AT CELL (I,J,K) = (   1,  64,  24)

 
 SOLVING FOR HEAD 
 FLOW MODEL IS TRANSIENT
 FLOW MODEL CONTAINS CONSTANT-HEAD CELLS


 MAXIMUM STEPSIZE DURING WHICH ANY PARTICLE CANNOT MOVE MORE THAN ONE CELL
 = 0.1191    (WHEN MIN. R.F.=1)  AT K=   3, I=   2, J=  33

 MAXIMUM STEPSIZE WHICH MEETS STABILITY CRITERION OF THE ADVECTION TERM
 (FOR PURE FINITE-DIFFERENCE OPTION, MIXELM=0) 
 = 0.8157E-01(WHEN MIN. R.F.=1)  AT K=   3, I=   2, J=  32


 TOTAL NUMBER OF POINT SOURCES/SINKS PRESENT IN THE FLOW MODEL =   240

 MAXIMUM STEPSIZE WHICH MEETS STABILITY CRITERION OF THE SINK & SOURCE TERM
 = 0.1000E+31(WHEN MIN. R.F.=1)  AT K=   0, I=   0, J=   0

 MAXIMUM STEPSIZE WHICH MEETS STABILITY CRITERION OF THE DISPERSION TERM
 = 0.5620E-02(WHEN MIN. R.F.=1)  AT K=   3, I=   2, J=  32
     1 CALLS TO GCG PACKAGE FOR TRANSPORT TIME STEP   6 IN FLOW TIME STEP  11 STRESS PERIOD   2
    17 TOTAL ITERATIONS
 
 SOLVING FOR HEAD 
 FLOW MODEL IS TRANSIENT
 FLOW MODEL CONTAINS CONSTANT-HEAD CELLS


 MAXIMUM STEPSIZE DURING WHICH ANY PARTICLE CANNOT MOVE MORE THAN ONE CELL
 = 0.1191    (WHEN MIN. R.F.=1)  AT K=   3, I=   2, J=  33

 MAXIMUM STEPSIZE WHICH MEETS STABILITY CRITERION OF THE ADVECTION TERM
 (FOR PURE FINITE-DIFFERENCE OPTION, MIXELM=0) 
 = 0.8157E-01(WHEN MIN. R.F.=1)  AT K=   3, I=   2, J=  32


 TOTAL NUMBER OF POINT SOURCES/SINKS PRESENT IN THE FLOW MODEL =   240

 MAXIMUM STEPSIZE WHICH MEETS STABILITY CRITERION OF THE SINK & SOURCE TERM
 = 0.1000E+31(WHEN MIN. R.F.=1)  AT K=   0, I=   0, J=   0

 MAXIMUM STEPSIZE WHICH MEETS STABILITY CRITERION OF THE DISPERSION TERM
 = 0.5620E-02(WHEN MIN. R.F.=1)  AT K=   3, I=   2, J=  32
     1 CALLS TO GCG PACKAGE FOR TRANSPORT TIME STEP   7 IN FLOW TIME STEP  11 STRESS PERIOD   2
    17 TOTAL ITERATIONS
 
 SOLVING FOR HEAD 
 FLOW MODEL IS TRANSIENT
 FLOW MODEL CONTAINS CONSTANT-HEAD CELLS


 MAXIMUM STEPSIZE DURING WHICH ANY PARTICLE CANNOT MOVE MORE THAN ONE CELL
 = 0.1191    (WHEN MIN. R.F.=1)  AT K=   3, I=   2, J=  33

 MAXIMUM STEPSIZE WHICH MEETS STABILITY CRITERION OF THE ADVECTION TERM
 (FOR PURE FINITE-DIFFERENCE OPTION, MIXELM=0) 
 = 0.8157E-01(WHEN MIN. R.F.=1)  AT K=   3, I=   2, J=  32


 TOTAL NUMBER OF POINT SOURCES/SINKS PRESENT IN THE FLOW MODEL =   240

 MAXIMUM STEPSIZE WHICH MEETS STABILITY CRITERION OF THE SINK & SOURCE TERM
 = 0.1000E+31(WHEN MIN. R.F.=1)  AT K=   0, I=   0, J=   0

 MAXIMUM STEPSIZE WHICH MEETS STABILITY CRITERION OF THE DISPERSION TERM
 = 0.5619E-02(WHEN MIN. R.F.=1)  AT K=   3, I=   2, J=  32
     1 CALLS TO GCG PACKAGE FOR TRANSPORT TIME STEP   8 IN FLOW TIME STEP  11 STRESS PERIOD   2
    17 TOTAL ITERATIONS
 
 SOLVING FOR HEAD 
 FLOW MODEL IS TRANSIENT
 FLOW MODEL CONTAINS CONSTANT-HEAD CELLS


 MAXIMUM STEPSIZE DURING WHICH ANY PARTICLE CANNOT MOVE MORE THAN ONE CELL
 = 0.1191    (WHEN MIN. R.F.=1)  AT K=   3, I=   2, J=  33

 MAXIMUM STEPSIZE WHICH MEETS STABILITY CRITERION OF THE ADVECTION TERM
 (FOR PURE FINITE-DIFFERENCE OPTION, MIXELM=0) 
 = 0.8157E-01(WHEN MIN. R.F.=1)  AT K=   3, I=   2, J=  32


 TOTAL NUMBER OF POINT SOURCES/SINKS PRESENT IN THE FLOW MODEL =   240

 MAXIMUM STEPSIZE WHICH MEETS STABILITY CRITERION OF THE SINK & SOURCE TERM
 = 0.1000E+31(WHEN MIN. R.F.=1)  AT K=   0, I=   0, J=   0

 MAXIMUM STEPSIZE WHICH MEETS STABILITY CRITERION OF THE DISPERSION TERM
 = 0.5619E-02(WHEN MIN. R.F.=1)  AT K=   3, I=   2, J=  32
     1 CALLS TO GCG PACKAGE FOR TRANSPORT TIME STEP   9 IN FLOW TIME STEP  11 STRESS PERIOD   2
    17 TOTAL ITERATIONS
 
 SOLVING FOR HEAD 
 FLOW MODEL IS TRANSIENT
 FLOW MODEL CONTAINS CONSTANT-HEAD CELLS


 MAXIMUM STEPSIZE DURING WHICH ANY PARTICLE CANNOT MOVE MORE THAN ONE CELL
 = 0.1191    (WHEN MIN. R.F.=1)  AT K=   3, I=   2, J=  33

 MAXIMUM STEPSIZE WHICH MEETS STABILITY CRITERION OF THE ADVECTION TERM
 (FOR PURE FINITE-DIFFERENCE OPTION, MIXELM=0) 
 = 0.8157E-01(WHEN MIN. R.F.=1)  AT K=   3, I=   2, J=  32


 TOTAL NUMBER OF POINT SOURCES/SINKS PRESENT IN THE FLOW MODEL =   240

 MAXIMUM STEPSIZE WHICH MEETS STABILITY CRITERION OF THE SINK & SOURCE TERM
 = 0.1000E+31(WHEN MIN. R.F.=1)  AT K=   0, I=   0, J=   0

 MAXIMUM STEPSIZE WHICH MEETS STABILITY CRITERION OF THE DISPERSION TERM
 = 0.5619E-02(WHEN MIN. R.F.=1)  AT K=   3, I=   2, J=  32
     1 CALLS TO GCG PACKAGE FOR TRANSPORT TIME STEP  10 IN FLOW TIME STEP  11 STRESS PERIOD   2
    17 TOTAL ITERATIONS



 >>>>>>>>>>>>>>>>>>>>>>>>>>>>>>>>>>>>>>>>>>>>>>>>>>>>>>>FOR COMPONENT NO. 01<<<<<<<<<<<<<<<<<<<<<<<<<<<<<<<<<<<<<<<<<<<<<<<<<<<<<<<


                                            -------------------------------------------
                                                      TRANSPORT STEP NO.   10
                                            -------------------------------------------

 TOTAL ELAPSED TIME SINCE BEGINNING OF SIMULATION =   11.89296    D   
 .....................................................................

                     CUMULATIVE MASS BUDGETS AT END OF TRANSPORT STEP   10, TIME STEP   11, STRESS PERIOD    2
                     ------------------------------------------------------------------------------------------

                                                             IN                           OUT
                                                      ----------------             ----------------
                               CONSTANT CONCENTRATION:    3495.271                   -818.6164    
                                        CONSTANT HEAD:    0.000000                    0.000000    
                               MASS STOR (FLOW MODEL):   0.1188626E-01              -0.2597006E-02
                                MASS STORAGE (SOLUTE):   0.5620034E-06               -2676.665    
                            ---------------------------------------------------------------------------
                                              [TOTAL]:    3495.283     KG            -3495.284     KG  

                                                          NET (IN - OUT):  -0.4924188E-03
                                                   DISCREPANCY (PERCENT):  -0.1408809E-04
 
 SOLVING FOR HEAD 
 FLOW MODEL IS TRANSIENT
 FLOW MODEL CONTAINS CONSTANT-HEAD CELLS


 MAXIMUM STEPSIZE DURING WHICH ANY PARTICLE CANNOT MOVE MORE THAN ONE CELL
 = 0.1191    (WHEN MIN. R.F.=1)  AT K=   3, I=   2, J=  33

 MAXIMUM STEPSIZE WHICH MEETS STABILITY CRITERION OF THE ADVECTION TERM
 (FOR PURE FINITE-DIFFERENCE OPTION, MIXELM=0) 
 = 0.8157E-01(WHEN MIN. R.F.=1)  AT K=   3, I=   2, J=  32


 TOTAL NUMBER OF POINT SOURCES/SINKS PRESENT IN THE FLOW MODEL =   240

 MAXIMUM STEPSIZE WHICH MEETS STABILITY CRITERION OF THE SINK & SOURCE TERM
 = 0.1000E+31(WHEN MIN. R.F.=1)  AT K=   0, I=   0, J=   0

 MAXIMUM STEPSIZE WHICH MEETS STABILITY CRITERION OF THE DISPERSION TERM
 = 0.5619E-02(WHEN MIN. R.F.=1)  AT K=   3, I=   2, J=  32
     1 CALLS TO GCG PACKAGE FOR TRANSPORT TIME STEP  11 IN FLOW TIME STEP  11 STRESS PERIOD   2
    17 TOTAL ITERATIONS
 
 SOLVING FOR HEAD 
 FLOW MODEL IS TRANSIENT
 FLOW MODEL CONTAINS CONSTANT-HEAD CELLS


 MAXIMUM STEPSIZE DURING WHICH ANY PARTICLE CANNOT MOVE MORE THAN ONE CELL
 = 0.1191    (WHEN MIN. R.F.=1)  AT K=   3, I=   2, J=  33

 MAXIMUM STEPSIZE WHICH MEETS STABILITY CRITERION OF THE ADVECTION TERM
 (FOR PURE FINITE-DIFFERENCE OPTION, MIXELM=0) 
 = 0.8157E-01(WHEN MIN. R.F.=1)  AT K=   3, I=   2, J=  32


 TOTAL NUMBER OF POINT SOURCES/SINKS PRESENT IN THE FLOW MODEL =   240

 MAXIMUM STEPSIZE WHICH MEETS STABILITY CRITERION OF THE SINK & SOURCE TERM
 = 0.1000E+31(WHEN MIN. R.F.=1)  AT K=   0, I=   0, J=   0

 MAXIMUM STEPSIZE WHICH MEETS STABILITY CRITERION OF THE DISPERSION TERM
 = 0.5619E-02(WHEN MIN. R.F.=1)  AT K=   3, I=   2, J=  32
     1 CALLS TO GCG PACKAGE FOR TRANSPORT TIME STEP  12 IN FLOW TIME STEP  11 STRESS PERIOD   2
     9 TOTAL ITERATIONS
  MAXIMUM CONCENTRATION CHANGES FOR EACH ITERATION:
  MAX. CHANGE LAYER,ROW,COL MAX. CHANGE LAYER,ROW,COL MAX. CHANGE LAYER,ROW,COL MAX. CHANGE LAYER,ROW,COL MAX. CHANGE LAYER,ROW,COL
 ------------------------------------------------------------------------------------------------------------------------------------
   0.7084E-03 ( 11,  3, 52)  0.1162E-03 (  6,  2, 60)  0.1917E-04 (  4,  1, 36)  0.1115E-04 (  3,  2, 33)  0.4659E-05 (  4,  2, 33)
   0.1655E-05 (  3,  2, 33)  0.4241E-06 (  3,  2, 34)  0.1452E-06 (  3,  2, 33)  0.4027E-07 (  3,  2, 34)


                                          ================================================
                                                         FROM TIME =   12.000     TO    13.000    

 
 SOLVING FOR HEAD 
 FLOW MODEL IS TRANSIENT
 FLOW MODEL CONTAINS CONSTANT-HEAD CELLS


 MAXIMUM STEPSIZE DURING WHICH ANY PARTICLE CANNOT MOVE MORE THAN ONE CELL
 = 0.1191    (WHEN MIN. R.F.=1)  AT K=   3, I=   2, J=  33

 MAXIMUM STEPSIZE WHICH MEETS STABILITY CRITERION OF THE ADVECTION TERM
 (FOR PURE FINITE-DIFFERENCE OPTION, MIXELM=0) 
 = 0.8157E-01(WHEN MIN. R.F.=1)  AT K=   3, I=   2, J=  32


 TOTAL NUMBER OF POINT SOURCES/SINKS PRESENT IN THE FLOW MODEL =   240

 MAXIMUM STEPSIZE WHICH MEETS STABILITY CRITERION OF THE SINK & SOURCE TERM
 = 0.1000E+31(WHEN MIN. R.F.=1)  AT K=   0, I=   0, J=   0

 MAXIMUM STEPSIZE WHICH MEETS STABILITY CRITERION OF THE DISPERSION TERM
 = 0.5619E-02(WHEN MIN. R.F.=1)  AT K=   3, I=   2, J=  32


     1 CALLS TO GCG PACKAGE FOR TRANSPORT TIME STEP   1 IN FLOW TIME STEP  12 STRESS PERIOD   2
    17 TOTAL ITERATIONS

 NO OUTPUT CONTROL FOR STRESS PERIOD    2   TIME STEP  12
 
 SOLVING FOR HEAD 
 FLOW MODEL IS TRANSIENT
 FLOW MODEL CONTAINS CONSTANT-HEAD CELLS


 MAXIMUM STEPSIZE DURING WHICH ANY PARTICLE CANNOT MOVE MORE THAN ONE CELL
 = 0.1191    (WHEN MIN. R.F.=1)  AT K=   3, I=   2, J=  33

 MAXIMUM STEPSIZE WHICH MEETS STABILITY CRITERION OF THE ADVECTION TERM
 (FOR PURE FINITE-DIFFERENCE OPTION, MIXELM=0) 
 = 0.8157E-01(WHEN MIN. R.F.=1)  AT K=   3, I=   2, J=  32


 TOTAL NUMBER OF POINT SOURCES/SINKS PRESENT IN THE FLOW MODEL =   240

 MAXIMUM STEPSIZE WHICH MEETS STABILITY CRITERION OF THE SINK & SOURCE TERM
 = 0.1000E+31(WHEN MIN. R.F.=1)  AT K=   0, I=   0, J=   0

 MAXIMUM STEPSIZE WHICH MEETS STABILITY CRITERION OF THE DISPERSION TERM
 = 0.5619E-02(WHEN MIN. R.F.=1)  AT K=   3, I=   2, J=  32
     1 CALLS TO GCG PACKAGE FOR TRANSPORT TIME STEP   2 IN FLOW TIME STEP  12 STRESS PERIOD   2
    17 TOTAL ITERATIONS
 
 SOLVING FOR HEAD 
 FLOW MODEL IS TRANSIENT
 FLOW MODEL CONTAINS CONSTANT-HEAD CELLS


 MAXIMUM STEPSIZE DURING WHICH ANY PARTICLE CANNOT MOVE MORE THAN ONE CELL
 = 0.1191    (WHEN MIN. R.F.=1)  AT K=   3, I=   2, J=  33

 MAXIMUM STEPSIZE WHICH MEETS STABILITY CRITERION OF THE ADVECTION TERM
 (FOR PURE FINITE-DIFFERENCE OPTION, MIXELM=0) 
 = 0.8157E-01(WHEN MIN. R.F.=1)  AT K=   3, I=   2, J=  32


 TOTAL NUMBER OF POINT SOURCES/SINKS PRESENT IN THE FLOW MODEL =   240

 MAXIMUM STEPSIZE WHICH MEETS STABILITY CRITERION OF THE SINK & SOURCE TERM
 = 0.1000E+31(WHEN MIN. R.F.=1)  AT K=   0, I=   0, J=   0

 MAXIMUM STEPSIZE WHICH MEETS STABILITY CRITERION OF THE DISPERSION TERM
 = 0.5619E-02(WHEN MIN. R.F.=1)  AT K=   3, I=   2, J=  32
     1 CALLS TO GCG PACKAGE FOR TRANSPORT TIME STEP   3 IN FLOW TIME STEP  12 STRESS PERIOD   2
    17 TOTAL ITERATIONS
 
 SOLVING FOR HEAD 
 FLOW MODEL IS TRANSIENT
 FLOW MODEL CONTAINS CONSTANT-HEAD CELLS


 MAXIMUM STEPSIZE DURING WHICH ANY PARTICLE CANNOT MOVE MORE THAN ONE CELL
 = 0.1191    (WHEN MIN. R.F.=1)  AT K=   3, I=   2, J=  33

 MAXIMUM STEPSIZE WHICH MEETS STABILITY CRITERION OF THE ADVECTION TERM
 (FOR PURE FINITE-DIFFERENCE OPTION, MIXELM=0) 
 = 0.8157E-01(WHEN MIN. R.F.=1)  AT K=   3, I=   2, J=  32


 TOTAL NUMBER OF POINT SOURCES/SINKS PRESENT IN THE FLOW MODEL =   240

 MAXIMUM STEPSIZE WHICH MEETS STABILITY CRITERION OF THE SINK & SOURCE TERM
 = 0.1000E+31(WHEN MIN. R.F.=1)  AT K=   0, I=   0, J=   0

 MAXIMUM STEPSIZE WHICH MEETS STABILITY CRITERION OF THE DISPERSION TERM
 = 0.5619E-02(WHEN MIN. R.F.=1)  AT K=   3, I=   2, J=  32
     1 CALLS TO GCG PACKAGE FOR TRANSPORT TIME STEP   4 IN FLOW TIME STEP  12 STRESS PERIOD   2
    17 TOTAL ITERATIONS
 
 SOLVING FOR HEAD 
 FLOW MODEL IS TRANSIENT
 FLOW MODEL CONTAINS CONSTANT-HEAD CELLS


 MAXIMUM STEPSIZE DURING WHICH ANY PARTICLE CANNOT MOVE MORE THAN ONE CELL
 = 0.1191    (WHEN MIN. R.F.=1)  AT K=   3, I=   2, J=  33

 MAXIMUM STEPSIZE WHICH MEETS STABILITY CRITERION OF THE ADVECTION TERM
 (FOR PURE FINITE-DIFFERENCE OPTION, MIXELM=0) 
 = 0.8157E-01(WHEN MIN. R.F.=1)  AT K=   3, I=   2, J=  32


 TOTAL NUMBER OF POINT SOURCES/SINKS PRESENT IN THE FLOW MODEL =   240

 MAXIMUM STEPSIZE WHICH MEETS STABILITY CRITERION OF THE SINK & SOURCE TERM
 = 0.1000E+31(WHEN MIN. R.F.=1)  AT K=   0, I=   0, J=   0

 MAXIMUM STEPSIZE WHICH MEETS STABILITY CRITERION OF THE DISPERSION TERM
 = 0.5619E-02(WHEN MIN. R.F.=1)  AT K=   3, I=   2, J=  32
     1 CALLS TO GCG PACKAGE FOR TRANSPORT TIME STEP   5 IN FLOW TIME STEP  12 STRESS PERIOD   2
    17 TOTAL ITERATIONS
 
 SOLVING FOR HEAD 
 FLOW MODEL IS TRANSIENT
 FLOW MODEL CONTAINS CONSTANT-HEAD CELLS


 MAXIMUM STEPSIZE DURING WHICH ANY PARTICLE CANNOT MOVE MORE THAN ONE CELL
 = 0.1191    (WHEN MIN. R.F.=1)  AT K=   3, I=   2, J=  33

 MAXIMUM STEPSIZE WHICH MEETS STABILITY CRITERION OF THE ADVECTION TERM
 (FOR PURE FINITE-DIFFERENCE OPTION, MIXELM=0) 
 = 0.8157E-01(WHEN MIN. R.F.=1)  AT K=   3, I=   2, J=  32


 TOTAL NUMBER OF POINT SOURCES/SINKS PRESENT IN THE FLOW MODEL =   240

 MAXIMUM STEPSIZE WHICH MEETS STABILITY CRITERION OF THE SINK & SOURCE TERM
 = 0.1000E+31(WHEN MIN. R.F.=1)  AT K=   0, I=   0, J=   0

 MAXIMUM STEPSIZE WHICH MEETS STABILITY CRITERION OF THE DISPERSION TERM
 = 0.5619E-02(WHEN MIN. R.F.=1)  AT K=   3, I=   2, J=  32
     1 CALLS TO GCG PACKAGE FOR TRANSPORT TIME STEP   6 IN FLOW TIME STEP  12 STRESS PERIOD   2
    17 TOTAL ITERATIONS
 
 SOLVING FOR HEAD 
 FLOW MODEL IS TRANSIENT
 FLOW MODEL CONTAINS CONSTANT-HEAD CELLS


 MAXIMUM STEPSIZE DURING WHICH ANY PARTICLE CANNOT MOVE MORE THAN ONE CELL
 = 0.1191    (WHEN MIN. R.F.=1)  AT K=   3, I=   2, J=  33

 MAXIMUM STEPSIZE WHICH MEETS STABILITY CRITERION OF THE ADVECTION TERM
 (FOR PURE FINITE-DIFFERENCE OPTION, MIXELM=0) 
 = 0.8157E-01(WHEN MIN. R.F.=1)  AT K=   3, I=   2, J=  32


 TOTAL NUMBER OF POINT SOURCES/SINKS PRESENT IN THE FLOW MODEL =   240

 MAXIMUM STEPSIZE WHICH MEETS STABILITY CRITERION OF THE SINK & SOURCE TERM
 = 0.1000E+31(WHEN MIN. R.F.=1)  AT K=   0, I=   0, J=   0

 MAXIMUM STEPSIZE WHICH MEETS STABILITY CRITERION OF THE DISPERSION TERM
 = 0.5619E-02(WHEN MIN. R.F.=1)  AT K=   3, I=   2, J=  32
     1 CALLS TO GCG PACKAGE FOR TRANSPORT TIME STEP   7 IN FLOW TIME STEP  12 STRESS PERIOD   2
    17 TOTAL ITERATIONS
 
 SOLVING FOR HEAD 
 FLOW MODEL IS TRANSIENT
 FLOW MODEL CONTAINS CONSTANT-HEAD CELLS


 MAXIMUM STEPSIZE DURING WHICH ANY PARTICLE CANNOT MOVE MORE THAN ONE CELL
 = 0.1191    (WHEN MIN. R.F.=1)  AT K=   3, I=   2, J=  33

 MAXIMUM STEPSIZE WHICH MEETS STABILITY CRITERION OF THE ADVECTION TERM
 (FOR PURE FINITE-DIFFERENCE OPTION, MIXELM=0) 
 = 0.8157E-01(WHEN MIN. R.F.=1)  AT K=   3, I=   2, J=  32


 TOTAL NUMBER OF POINT SOURCES/SINKS PRESENT IN THE FLOW MODEL =   240

 MAXIMUM STEPSIZE WHICH MEETS STABILITY CRITERION OF THE SINK & SOURCE TERM
 = 0.1000E+31(WHEN MIN. R.F.=1)  AT K=   0, I=   0, J=   0

 MAXIMUM STEPSIZE WHICH MEETS STABILITY CRITERION OF THE DISPERSION TERM
 = 0.5619E-02(WHEN MIN. R.F.=1)  AT K=   3, I=   2, J=  32
     1 CALLS TO GCG PACKAGE FOR TRANSPORT TIME STEP   8 IN FLOW TIME STEP  12 STRESS PERIOD   2
    17 TOTAL ITERATIONS
 
 SOLVING FOR HEAD 
 FLOW MODEL IS TRANSIENT
 FLOW MODEL CONTAINS CONSTANT-HEAD CELLS


 MAXIMUM STEPSIZE DURING WHICH ANY PARTICLE CANNOT MOVE MORE THAN ONE CELL
 = 0.1191    (WHEN MIN. R.F.=1)  AT K=   3, I=   2, J=  33

 MAXIMUM STEPSIZE WHICH MEETS STABILITY CRITERION OF THE ADVECTION TERM
 (FOR PURE FINITE-DIFFERENCE OPTION, MIXELM=0) 
 = 0.8157E-01(WHEN MIN. R.F.=1)  AT K=   3, I=   2, J=  32


 TOTAL NUMBER OF POINT SOURCES/SINKS PRESENT IN THE FLOW MODEL =   240

 MAXIMUM STEPSIZE WHICH MEETS STABILITY CRITERION OF THE SINK & SOURCE TERM
 = 0.1000E+31(WHEN MIN. R.F.=1)  AT K=   0, I=   0, J=   0

 MAXIMUM STEPSIZE WHICH MEETS STABILITY CRITERION OF THE DISPERSION TERM
 = 0.5619E-02(WHEN MIN. R.F.=1)  AT K=   3, I=   2, J=  32
     1 CALLS TO GCG PACKAGE FOR TRANSPORT TIME STEP   9 IN FLOW TIME STEP  12 STRESS PERIOD   2
    17 TOTAL ITERATIONS
 
 SOLVING FOR HEAD 
 FLOW MODEL IS TRANSIENT
 FLOW MODEL CONTAINS CONSTANT-HEAD CELLS


 MAXIMUM STEPSIZE DURING WHICH ANY PARTICLE CANNOT MOVE MORE THAN ONE CELL
 = 0.1191    (WHEN MIN. R.F.=1)  AT K=   3, I=   2, J=  33

 MAXIMUM STEPSIZE WHICH MEETS STABILITY CRITERION OF THE ADVECTION TERM
 (FOR PURE FINITE-DIFFERENCE OPTION, MIXELM=0) 
 = 0.8157E-01(WHEN MIN. R.F.=1)  AT K=   3, I=   2, J=  32


 TOTAL NUMBER OF POINT SOURCES/SINKS PRESENT IN THE FLOW MODEL =   240

 MAXIMUM STEPSIZE WHICH MEETS STABILITY CRITERION OF THE SINK & SOURCE TERM
 = 0.1000E+31(WHEN MIN. R.F.=1)  AT K=   0, I=   0, J=   0

 MAXIMUM STEPSIZE WHICH MEETS STABILITY CRITERION OF THE DISPERSION TERM
 = 0.5619E-02(WHEN MIN. R.F.=1)  AT K=   3, I=   2, J=  32
     1 CALLS TO GCG PACKAGE FOR TRANSPORT TIME STEP  10 IN FLOW TIME STEP  12 STRESS PERIOD   2
    17 TOTAL ITERATIONS



 >>>>>>>>>>>>>>>>>>>>>>>>>>>>>>>>>>>>>>>>>>>>>>>>>>>>>>>FOR COMPONENT NO. 01<<<<<<<<<<<<<<<<<<<<<<<<<<<<<<<<<<<<<<<<<<<<<<<<<<<<<<<


                                            -------------------------------------------
                                                      TRANSPORT STEP NO.   10
                                            -------------------------------------------

 TOTAL ELAPSED TIME SINCE BEGINNING OF SIMULATION =   12.89291    D   
 .....................................................................

                     CUMULATIVE MASS BUDGETS AT END OF TRANSPORT STEP   10, TIME STEP   12, STRESS PERIOD    2
                     ------------------------------------------------------------------------------------------

                                                             IN                           OUT
                                                      ----------------             ----------------
                               CONSTANT CONCENTRATION:    3682.571                   -904.5679    
                                        CONSTANT HEAD:    0.000000                    0.000000    
                               MASS STOR (FLOW MODEL):   0.1189482E-01              -0.2658175E-02
                                MASS STORAGE (SOLUTE):   0.5620034E-06               -2778.013    
                            ---------------------------------------------------------------------------
                                              [TOTAL]:    3682.583     KG            -3682.584     KG  

                                                          NET (IN - OUT):  -0.5771467E-03
                                                   DISCREPANCY (PERCENT):  -0.1567233E-04
 
 SOLVING FOR HEAD 
 FLOW MODEL IS TRANSIENT
 FLOW MODEL CONTAINS CONSTANT-HEAD CELLS


 MAXIMUM STEPSIZE DURING WHICH ANY PARTICLE CANNOT MOVE MORE THAN ONE CELL
 = 0.1190    (WHEN MIN. R.F.=1)  AT K=   3, I=   2, J=  33

 MAXIMUM STEPSIZE WHICH MEETS STABILITY CRITERION OF THE ADVECTION TERM
 (FOR PURE FINITE-DIFFERENCE OPTION, MIXELM=0) 
 = 0.8157E-01(WHEN MIN. R.F.=1)  AT K=   3, I=   2, J=  32


 TOTAL NUMBER OF POINT SOURCES/SINKS PRESENT IN THE FLOW MODEL =   240

 MAXIMUM STEPSIZE WHICH MEETS STABILITY CRITERION OF THE SINK & SOURCE TERM
 = 0.1000E+31(WHEN MIN. R.F.=1)  AT K=   0, I=   0, J=   0

 MAXIMUM STEPSIZE WHICH MEETS STABILITY CRITERION OF THE DISPERSION TERM
 = 0.5619E-02(WHEN MIN. R.F.=1)  AT K=   3, I=   2, J=  32
     1 CALLS TO GCG PACKAGE FOR TRANSPORT TIME STEP  11 IN FLOW TIME STEP  12 STRESS PERIOD   2
    17 TOTAL ITERATIONS
 
 SOLVING FOR HEAD 
 FLOW MODEL IS TRANSIENT
 FLOW MODEL CONTAINS CONSTANT-HEAD CELLS


 MAXIMUM STEPSIZE DURING WHICH ANY PARTICLE CANNOT MOVE MORE THAN ONE CELL
 = 0.1190    (WHEN MIN. R.F.=1)  AT K=   3, I=   2, J=  33

 MAXIMUM STEPSIZE WHICH MEETS STABILITY CRITERION OF THE ADVECTION TERM
 (FOR PURE FINITE-DIFFERENCE OPTION, MIXELM=0) 
 = 0.8157E-01(WHEN MIN. R.F.=1)  AT K=   3, I=   2, J=  32


 TOTAL NUMBER OF POINT SOURCES/SINKS PRESENT IN THE FLOW MODEL =   240

 MAXIMUM STEPSIZE WHICH MEETS STABILITY CRITERION OF THE SINK & SOURCE TERM
 = 0.1000E+31(WHEN MIN. R.F.=1)  AT K=   0, I=   0, J=   0

 MAXIMUM STEPSIZE WHICH MEETS STABILITY CRITERION OF THE DISPERSION TERM
 = 0.5619E-02(WHEN MIN. R.F.=1)  AT K=   3, I=   2, J=  32
     1 CALLS TO GCG PACKAGE FOR TRANSPORT TIME STEP  12 IN FLOW TIME STEP  12 STRESS PERIOD   2
     9 TOTAL ITERATIONS
  MAXIMUM CONCENTRATION CHANGES FOR EACH ITERATION:
  MAX. CHANGE LAYER,ROW,COL MAX. CHANGE LAYER,ROW,COL MAX. CHANGE LAYER,ROW,COL MAX. CHANGE LAYER,ROW,COL MAX. CHANGE LAYER,ROW,COL
 ------------------------------------------------------------------------------------------------------------------------------------
   0.6576E-03 ( 13,  3, 45)  0.1070E-03 (  6,  2, 60)  0.1655E-04 (  4,  1, 36)  0.9689E-05 (  3,  2, 33)  0.4065E-05 (  4,  2, 33)
   0.1455E-05 (  3,  2, 33)  0.3718E-06 (  2,  2, 33)  0.1287E-06 (  3,  2, 33)  0.3607E-07 (  3,  2, 34)


                                          ================================================
                                                         FROM TIME =   13.000     TO    14.000    

 
 SOLVING FOR HEAD 
 FLOW MODEL IS TRANSIENT
 FLOW MODEL CONTAINS CONSTANT-HEAD CELLS


 MAXIMUM STEPSIZE DURING WHICH ANY PARTICLE CANNOT MOVE MORE THAN ONE CELL
 = 0.1190    (WHEN MIN. R.F.=1)  AT K=   3, I=   2, J=  33

 MAXIMUM STEPSIZE WHICH MEETS STABILITY CRITERION OF THE ADVECTION TERM
 (FOR PURE FINITE-DIFFERENCE OPTION, MIXELM=0) 
 = 0.8157E-01(WHEN MIN. R.F.=1)  AT K=   3, I=   2, J=  32


 TOTAL NUMBER OF POINT SOURCES/SINKS PRESENT IN THE FLOW MODEL =   240

 MAXIMUM STEPSIZE WHICH MEETS STABILITY CRITERION OF THE SINK & SOURCE TERM
 = 0.1000E+31(WHEN MIN. R.F.=1)  AT K=   0, I=   0, J=   0

 MAXIMUM STEPSIZE WHICH MEETS STABILITY CRITERION OF THE DISPERSION TERM
 = 0.5619E-02(WHEN MIN. R.F.=1)  AT K=   3, I=   2, J=  32


     1 CALLS TO GCG PACKAGE FOR TRANSPORT TIME STEP   1 IN FLOW TIME STEP  13 STRESS PERIOD   2
    17 TOTAL ITERATIONS

 NO OUTPUT CONTROL FOR STRESS PERIOD    2   TIME STEP  13
 
 SOLVING FOR HEAD 
 FLOW MODEL IS TRANSIENT
 FLOW MODEL CONTAINS CONSTANT-HEAD CELLS


 MAXIMUM STEPSIZE DURING WHICH ANY PARTICLE CANNOT MOVE MORE THAN ONE CELL
 = 0.1190    (WHEN MIN. R.F.=1)  AT K=   3, I=   2, J=  33

 MAXIMUM STEPSIZE WHICH MEETS STABILITY CRITERION OF THE ADVECTION TERM
 (FOR PURE FINITE-DIFFERENCE OPTION, MIXELM=0) 
 = 0.8157E-01(WHEN MIN. R.F.=1)  AT K=   3, I=   2, J=  32


 TOTAL NUMBER OF POINT SOURCES/SINKS PRESENT IN THE FLOW MODEL =   240

 MAXIMUM STEPSIZE WHICH MEETS STABILITY CRITERION OF THE SINK & SOURCE TERM
 = 0.1000E+31(WHEN MIN. R.F.=1)  AT K=   0, I=   0, J=   0

 MAXIMUM STEPSIZE WHICH MEETS STABILITY CRITERION OF THE DISPERSION TERM
 = 0.5619E-02(WHEN MIN. R.F.=1)  AT K=   3, I=   2, J=  32
     1 CALLS TO GCG PACKAGE FOR TRANSPORT TIME STEP   2 IN FLOW TIME STEP  13 STRESS PERIOD   2
    17 TOTAL ITERATIONS
 
 SOLVING FOR HEAD 
 FLOW MODEL IS TRANSIENT
 FLOW MODEL CONTAINS CONSTANT-HEAD CELLS


 MAXIMUM STEPSIZE DURING WHICH ANY PARTICLE CANNOT MOVE MORE THAN ONE CELL
 = 0.1190    (WHEN MIN. R.F.=1)  AT K=   3, I=   2, J=  33

 MAXIMUM STEPSIZE WHICH MEETS STABILITY CRITERION OF THE ADVECTION TERM
 (FOR PURE FINITE-DIFFERENCE OPTION, MIXELM=0) 
 = 0.8157E-01(WHEN MIN. R.F.=1)  AT K=   3, I=   2, J=  32


 TOTAL NUMBER OF POINT SOURCES/SINKS PRESENT IN THE FLOW MODEL =   240

 MAXIMUM STEPSIZE WHICH MEETS STABILITY CRITERION OF THE SINK & SOURCE TERM
 = 0.1000E+31(WHEN MIN. R.F.=1)  AT K=   0, I=   0, J=   0

 MAXIMUM STEPSIZE WHICH MEETS STABILITY CRITERION OF THE DISPERSION TERM
 = 0.5619E-02(WHEN MIN. R.F.=1)  AT K=   3, I=   2, J=  32
     1 CALLS TO GCG PACKAGE FOR TRANSPORT TIME STEP   3 IN FLOW TIME STEP  13 STRESS PERIOD   2
    17 TOTAL ITERATIONS
 
 SOLVING FOR HEAD 
 FLOW MODEL IS TRANSIENT
 FLOW MODEL CONTAINS CONSTANT-HEAD CELLS


 MAXIMUM STEPSIZE DURING WHICH ANY PARTICLE CANNOT MOVE MORE THAN ONE CELL
 = 0.1190    (WHEN MIN. R.F.=1)  AT K=   3, I=   2, J=  33

 MAXIMUM STEPSIZE WHICH MEETS STABILITY CRITERION OF THE ADVECTION TERM
 (FOR PURE FINITE-DIFFERENCE OPTION, MIXELM=0) 
 = 0.8157E-01(WHEN MIN. R.F.=1)  AT K=   3, I=   2, J=  32


 TOTAL NUMBER OF POINT SOURCES/SINKS PRESENT IN THE FLOW MODEL =   240

 MAXIMUM STEPSIZE WHICH MEETS STABILITY CRITERION OF THE SINK & SOURCE TERM
 = 0.1000E+31(WHEN MIN. R.F.=1)  AT K=   0, I=   0, J=   0

 MAXIMUM STEPSIZE WHICH MEETS STABILITY CRITERION OF THE DISPERSION TERM
 = 0.5619E-02(WHEN MIN. R.F.=1)  AT K=   3, I=   2, J=  32
     1 CALLS TO GCG PACKAGE FOR TRANSPORT TIME STEP   4 IN FLOW TIME STEP  13 STRESS PERIOD   2
    17 TOTAL ITERATIONS
 
 SOLVING FOR HEAD 
 FLOW MODEL IS TRANSIENT
 FLOW MODEL CONTAINS CONSTANT-HEAD CELLS


 MAXIMUM STEPSIZE DURING WHICH ANY PARTICLE CANNOT MOVE MORE THAN ONE CELL
 = 0.1190    (WHEN MIN. R.F.=1)  AT K=   3, I=   2, J=  33

 MAXIMUM STEPSIZE WHICH MEETS STABILITY CRITERION OF THE ADVECTION TERM
 (FOR PURE FINITE-DIFFERENCE OPTION, MIXELM=0) 
 = 0.8157E-01(WHEN MIN. R.F.=1)  AT K=   3, I=   2, J=  32


 TOTAL NUMBER OF POINT SOURCES/SINKS PRESENT IN THE FLOW MODEL =   240

 MAXIMUM STEPSIZE WHICH MEETS STABILITY CRITERION OF THE SINK & SOURCE TERM
 = 0.1000E+31(WHEN MIN. R.F.=1)  AT K=   0, I=   0, J=   0

 MAXIMUM STEPSIZE WHICH MEETS STABILITY CRITERION OF THE DISPERSION TERM
 = 0.5619E-02(WHEN MIN. R.F.=1)  AT K=   3, I=   2, J=  32
     1 CALLS TO GCG PACKAGE FOR TRANSPORT TIME STEP   5 IN FLOW TIME STEP  13 STRESS PERIOD   2
    17 TOTAL ITERATIONS
 
 SOLVING FOR HEAD 
 FLOW MODEL IS TRANSIENT
 FLOW MODEL CONTAINS CONSTANT-HEAD CELLS


 MAXIMUM STEPSIZE DURING WHICH ANY PARTICLE CANNOT MOVE MORE THAN ONE CELL
 = 0.1190    (WHEN MIN. R.F.=1)  AT K=   3, I=   2, J=  33

 MAXIMUM STEPSIZE WHICH MEETS STABILITY CRITERION OF THE ADVECTION TERM
 (FOR PURE FINITE-DIFFERENCE OPTION, MIXELM=0) 
 = 0.8157E-01(WHEN MIN. R.F.=1)  AT K=   3, I=   2, J=  32


 TOTAL NUMBER OF POINT SOURCES/SINKS PRESENT IN THE FLOW MODEL =   240

 MAXIMUM STEPSIZE WHICH MEETS STABILITY CRITERION OF THE SINK & SOURCE TERM
 = 0.1000E+31(WHEN MIN. R.F.=1)  AT K=   0, I=   0, J=   0

 MAXIMUM STEPSIZE WHICH MEETS STABILITY CRITERION OF THE DISPERSION TERM
 = 0.5619E-02(WHEN MIN. R.F.=1)  AT K=   3, I=   2, J=  32
     1 CALLS TO GCG PACKAGE FOR TRANSPORT TIME STEP   6 IN FLOW TIME STEP  13 STRESS PERIOD   2
    17 TOTAL ITERATIONS
 
 SOLVING FOR HEAD 
 FLOW MODEL IS TRANSIENT
 FLOW MODEL CONTAINS CONSTANT-HEAD CELLS


 MAXIMUM STEPSIZE DURING WHICH ANY PARTICLE CANNOT MOVE MORE THAN ONE CELL
 = 0.1190    (WHEN MIN. R.F.=1)  AT K=   3, I=   2, J=  33

 MAXIMUM STEPSIZE WHICH MEETS STABILITY CRITERION OF THE ADVECTION TERM
 (FOR PURE FINITE-DIFFERENCE OPTION, MIXELM=0) 
 = 0.8157E-01(WHEN MIN. R.F.=1)  AT K=   3, I=   2, J=  32


 TOTAL NUMBER OF POINT SOURCES/SINKS PRESENT IN THE FLOW MODEL =   240

 MAXIMUM STEPSIZE WHICH MEETS STABILITY CRITERION OF THE SINK & SOURCE TERM
 = 0.1000E+31(WHEN MIN. R.F.=1)  AT K=   0, I=   0, J=   0

 MAXIMUM STEPSIZE WHICH MEETS STABILITY CRITERION OF THE DISPERSION TERM
 = 0.5619E-02(WHEN MIN. R.F.=1)  AT K=   3, I=   2, J=  32
     1 CALLS TO GCG PACKAGE FOR TRANSPORT TIME STEP   7 IN FLOW TIME STEP  13 STRESS PERIOD   2
    17 TOTAL ITERATIONS
 
 SOLVING FOR HEAD 
 FLOW MODEL IS TRANSIENT
 FLOW MODEL CONTAINS CONSTANT-HEAD CELLS


 MAXIMUM STEPSIZE DURING WHICH ANY PARTICLE CANNOT MOVE MORE THAN ONE CELL
 = 0.1190    (WHEN MIN. R.F.=1)  AT K=   3, I=   2, J=  33

 MAXIMUM STEPSIZE WHICH MEETS STABILITY CRITERION OF THE ADVECTION TERM
 (FOR PURE FINITE-DIFFERENCE OPTION, MIXELM=0) 
 = 0.8156E-01(WHEN MIN. R.F.=1)  AT K=   3, I=   2, J=  32


 TOTAL NUMBER OF POINT SOURCES/SINKS PRESENT IN THE FLOW MODEL =   240

 MAXIMUM STEPSIZE WHICH MEETS STABILITY CRITERION OF THE SINK & SOURCE TERM
 = 0.1000E+31(WHEN MIN. R.F.=1)  AT K=   0, I=   0, J=   0

 MAXIMUM STEPSIZE WHICH MEETS STABILITY CRITERION OF THE DISPERSION TERM
 = 0.5619E-02(WHEN MIN. R.F.=1)  AT K=   3, I=   2, J=  32
     1 CALLS TO GCG PACKAGE FOR TRANSPORT TIME STEP   8 IN FLOW TIME STEP  13 STRESS PERIOD   2
    17 TOTAL ITERATIONS
 
 SOLVING FOR HEAD 
 FLOW MODEL IS TRANSIENT
 FLOW MODEL CONTAINS CONSTANT-HEAD CELLS


 MAXIMUM STEPSIZE DURING WHICH ANY PARTICLE CANNOT MOVE MORE THAN ONE CELL
 = 0.1190    (WHEN MIN. R.F.=1)  AT K=   3, I=   2, J=  33

 MAXIMUM STEPSIZE WHICH MEETS STABILITY CRITERION OF THE ADVECTION TERM
 (FOR PURE FINITE-DIFFERENCE OPTION, MIXELM=0) 
 = 0.8156E-01(WHEN MIN. R.F.=1)  AT K=   3, I=   2, J=  32


 TOTAL NUMBER OF POINT SOURCES/SINKS PRESENT IN THE FLOW MODEL =   240

 MAXIMUM STEPSIZE WHICH MEETS STABILITY CRITERION OF THE SINK & SOURCE TERM
 = 0.1000E+31(WHEN MIN. R.F.=1)  AT K=   0, I=   0, J=   0

 MAXIMUM STEPSIZE WHICH MEETS STABILITY CRITERION OF THE DISPERSION TERM
 = 0.5619E-02(WHEN MIN. R.F.=1)  AT K=   3, I=   2, J=  32
     1 CALLS TO GCG PACKAGE FOR TRANSPORT TIME STEP   9 IN FLOW TIME STEP  13 STRESS PERIOD   2
    17 TOTAL ITERATIONS
 
 SOLVING FOR HEAD 
 FLOW MODEL IS TRANSIENT
 FLOW MODEL CONTAINS CONSTANT-HEAD CELLS


 MAXIMUM STEPSIZE DURING WHICH ANY PARTICLE CANNOT MOVE MORE THAN ONE CELL
 = 0.1190    (WHEN MIN. R.F.=1)  AT K=   3, I=   2, J=  33

 MAXIMUM STEPSIZE WHICH MEETS STABILITY CRITERION OF THE ADVECTION TERM
 (FOR PURE FINITE-DIFFERENCE OPTION, MIXELM=0) 
 = 0.8156E-01(WHEN MIN. R.F.=1)  AT K=   3, I=   2, J=  32


 TOTAL NUMBER OF POINT SOURCES/SINKS PRESENT IN THE FLOW MODEL =   240

 MAXIMUM STEPSIZE WHICH MEETS STABILITY CRITERION OF THE SINK & SOURCE TERM
 = 0.1000E+31(WHEN MIN. R.F.=1)  AT K=   0, I=   0, J=   0

 MAXIMUM STEPSIZE WHICH MEETS STABILITY CRITERION OF THE DISPERSION TERM
 = 0.5619E-02(WHEN MIN. R.F.=1)  AT K=   3, I=   2, J=  32
     1 CALLS TO GCG PACKAGE FOR TRANSPORT TIME STEP  10 IN FLOW TIME STEP  13 STRESS PERIOD   2
    17 TOTAL ITERATIONS



 >>>>>>>>>>>>>>>>>>>>>>>>>>>>>>>>>>>>>>>>>>>>>>>>>>>>>>>FOR COMPONENT NO. 01<<<<<<<<<<<<<<<<<<<<<<<<<<<<<<<<<<<<<<<<<<<<<<<<<<<<<<<


                                            -------------------------------------------
                                                      TRANSPORT STEP NO.   10
                                            -------------------------------------------

 TOTAL ELAPSED TIME SINCE BEGINNING OF SIMULATION =   13.89284    D   
 .....................................................................

                     CUMULATIVE MASS BUDGETS AT END OF TRANSPORT STEP   10, TIME STEP   13, STRESS PERIOD    2
                     ------------------------------------------------------------------------------------------

                                                             IN                           OUT
                                                      ----------------             ----------------
                               CONSTANT CONCENTRATION:    3863.038                   -991.1107    
                                        CONSTANT HEAD:    0.000000                    0.000000    
                               MASS STOR (FLOW MODEL):   0.1190508E-01              -0.2712220E-02
                                MASS STORAGE (SOLUTE):   0.5620034E-06               -2871.937    
                            ---------------------------------------------------------------------------
                                              [TOTAL]:    3863.050     KG            -3863.051     KG  

                                                          NET (IN - OUT):  -0.6547353E-03
                                                   DISCREPANCY (PERCENT):  -0.1694866E-04
 
 SOLVING FOR HEAD 
 FLOW MODEL IS TRANSIENT
 FLOW MODEL CONTAINS CONSTANT-HEAD CELLS


 MAXIMUM STEPSIZE DURING WHICH ANY PARTICLE CANNOT MOVE MORE THAN ONE CELL
 = 0.1190    (WHEN MIN. R.F.=1)  AT K=   3, I=   2, J=  33

 MAXIMUM STEPSIZE WHICH MEETS STABILITY CRITERION OF THE ADVECTION TERM
 (FOR PURE FINITE-DIFFERENCE OPTION, MIXELM=0) 
 = 0.8156E-01(WHEN MIN. R.F.=1)  AT K=   3, I=   2, J=  32


 TOTAL NUMBER OF POINT SOURCES/SINKS PRESENT IN THE FLOW MODEL =   240

 MAXIMUM STEPSIZE WHICH MEETS STABILITY CRITERION OF THE SINK & SOURCE TERM
 = 0.1000E+31(WHEN MIN. R.F.=1)  AT K=   0, I=   0, J=   0

 MAXIMUM STEPSIZE WHICH MEETS STABILITY CRITERION OF THE DISPERSION TERM
 = 0.5619E-02(WHEN MIN. R.F.=1)  AT K=   3, I=   2, J=  32
     1 CALLS TO GCG PACKAGE FOR TRANSPORT TIME STEP  11 IN FLOW TIME STEP  13 STRESS PERIOD   2
    17 TOTAL ITERATIONS
 
 SOLVING FOR HEAD 
 FLOW MODEL IS TRANSIENT
 FLOW MODEL CONTAINS CONSTANT-HEAD CELLS


 MAXIMUM STEPSIZE DURING WHICH ANY PARTICLE CANNOT MOVE MORE THAN ONE CELL
 = 0.1190    (WHEN MIN. R.F.=1)  AT K=   3, I=   2, J=  33

 MAXIMUM STEPSIZE WHICH MEETS STABILITY CRITERION OF THE ADVECTION TERM
 (FOR PURE FINITE-DIFFERENCE OPTION, MIXELM=0) 
 = 0.8156E-01(WHEN MIN. R.F.=1)  AT K=   3, I=   2, J=  32


 TOTAL NUMBER OF POINT SOURCES/SINKS PRESENT IN THE FLOW MODEL =   240

 MAXIMUM STEPSIZE WHICH MEETS STABILITY CRITERION OF THE SINK & SOURCE TERM
 = 0.1000E+31(WHEN MIN. R.F.=1)  AT K=   0, I=   0, J=   0

 MAXIMUM STEPSIZE WHICH MEETS STABILITY CRITERION OF THE DISPERSION TERM
 = 0.5619E-02(WHEN MIN. R.F.=1)  AT K=   3, I=   2, J=  32
     1 CALLS TO GCG PACKAGE FOR TRANSPORT TIME STEP  12 IN FLOW TIME STEP  13 STRESS PERIOD   2
     9 TOTAL ITERATIONS
  MAXIMUM CONCENTRATION CHANGES FOR EACH ITERATION:
  MAX. CHANGE LAYER,ROW,COL MAX. CHANGE LAYER,ROW,COL MAX. CHANGE LAYER,ROW,COL MAX. CHANGE LAYER,ROW,COL MAX. CHANGE LAYER,ROW,COL
 ------------------------------------------------------------------------------------------------------------------------------------
   0.6166E-03 ( 13,  3, 45)  0.9906E-04 (  6,  2, 60)  0.1445E-04 (  4,  2, 40)  0.8510E-05 (  3,  2, 33)  0.3585E-05 (  4,  2, 33)
   0.1293E-05 (  3,  2, 33)  0.3307E-06 (  2,  2, 33)  0.1153E-06 (  3,  2, 33)  0.3267E-07 (  3,  2, 34)


                                          ================================================
                                                         FROM TIME =   14.000     TO    15.000    

 
 SOLVING FOR HEAD 
 FLOW MODEL IS TRANSIENT
 FLOW MODEL CONTAINS CONSTANT-HEAD CELLS


 MAXIMUM STEPSIZE DURING WHICH ANY PARTICLE CANNOT MOVE MORE THAN ONE CELL
 = 0.1190    (WHEN MIN. R.F.=1)  AT K=   3, I=   2, J=  33

 MAXIMUM STEPSIZE WHICH MEETS STABILITY CRITERION OF THE ADVECTION TERM
 (FOR PURE FINITE-DIFFERENCE OPTION, MIXELM=0) 
 = 0.8156E-01(WHEN MIN. R.F.=1)  AT K=   3, I=   2, J=  32


 TOTAL NUMBER OF POINT SOURCES/SINKS PRESENT IN THE FLOW MODEL =   240

 MAXIMUM STEPSIZE WHICH MEETS STABILITY CRITERION OF THE SINK & SOURCE TERM
 = 0.1000E+31(WHEN MIN. R.F.=1)  AT K=   0, I=   0, J=   0

 MAXIMUM STEPSIZE WHICH MEETS STABILITY CRITERION OF THE DISPERSION TERM
 = 0.5619E-02(WHEN MIN. R.F.=1)  AT K=   3, I=   2, J=  32


     1 CALLS TO GCG PACKAGE FOR TRANSPORT TIME STEP   1 IN FLOW TIME STEP  14 STRESS PERIOD   2
    17 TOTAL ITERATIONS

 NO OUTPUT CONTROL FOR STRESS PERIOD    2   TIME STEP  14
 
 SOLVING FOR HEAD 
 FLOW MODEL IS TRANSIENT
 FLOW MODEL CONTAINS CONSTANT-HEAD CELLS


 MAXIMUM STEPSIZE DURING WHICH ANY PARTICLE CANNOT MOVE MORE THAN ONE CELL
 = 0.1190    (WHEN MIN. R.F.=1)  AT K=   3, I=   2, J=  33

 MAXIMUM STEPSIZE WHICH MEETS STABILITY CRITERION OF THE ADVECTION TERM
 (FOR PURE FINITE-DIFFERENCE OPTION, MIXELM=0) 
 = 0.8156E-01(WHEN MIN. R.F.=1)  AT K=   3, I=   2, J=  32


 TOTAL NUMBER OF POINT SOURCES/SINKS PRESENT IN THE FLOW MODEL =   240

 MAXIMUM STEPSIZE WHICH MEETS STABILITY CRITERION OF THE SINK & SOURCE TERM
 = 0.1000E+31(WHEN MIN. R.F.=1)  AT K=   0, I=   0, J=   0

 MAXIMUM STEPSIZE WHICH MEETS STABILITY CRITERION OF THE DISPERSION TERM
 = 0.5619E-02(WHEN MIN. R.F.=1)  AT K=   3, I=   2, J=  32
     1 CALLS TO GCG PACKAGE FOR TRANSPORT TIME STEP   2 IN FLOW TIME STEP  14 STRESS PERIOD   2
    17 TOTAL ITERATIONS
 
 SOLVING FOR HEAD 
 FLOW MODEL IS TRANSIENT
 FLOW MODEL CONTAINS CONSTANT-HEAD CELLS


 MAXIMUM STEPSIZE DURING WHICH ANY PARTICLE CANNOT MOVE MORE THAN ONE CELL
 = 0.1190    (WHEN MIN. R.F.=1)  AT K=   3, I=   2, J=  33

 MAXIMUM STEPSIZE WHICH MEETS STABILITY CRITERION OF THE ADVECTION TERM
 (FOR PURE FINITE-DIFFERENCE OPTION, MIXELM=0) 
 = 0.8156E-01(WHEN MIN. R.F.=1)  AT K=   3, I=   2, J=  32


 TOTAL NUMBER OF POINT SOURCES/SINKS PRESENT IN THE FLOW MODEL =   240

 MAXIMUM STEPSIZE WHICH MEETS STABILITY CRITERION OF THE SINK & SOURCE TERM
 = 0.1000E+31(WHEN MIN. R.F.=1)  AT K=   0, I=   0, J=   0

 MAXIMUM STEPSIZE WHICH MEETS STABILITY CRITERION OF THE DISPERSION TERM
 = 0.5619E-02(WHEN MIN. R.F.=1)  AT K=   3, I=   2, J=  32
     1 CALLS TO GCG PACKAGE FOR TRANSPORT TIME STEP   3 IN FLOW TIME STEP  14 STRESS PERIOD   2
    17 TOTAL ITERATIONS
 
 SOLVING FOR HEAD 
 FLOW MODEL IS TRANSIENT
 FLOW MODEL CONTAINS CONSTANT-HEAD CELLS


 MAXIMUM STEPSIZE DURING WHICH ANY PARTICLE CANNOT MOVE MORE THAN ONE CELL
 = 0.1190    (WHEN MIN. R.F.=1)  AT K=   3, I=   2, J=  33

 MAXIMUM STEPSIZE WHICH MEETS STABILITY CRITERION OF THE ADVECTION TERM
 (FOR PURE FINITE-DIFFERENCE OPTION, MIXELM=0) 
 = 0.8156E-01(WHEN MIN. R.F.=1)  AT K=   3, I=   2, J=  32


 TOTAL NUMBER OF POINT SOURCES/SINKS PRESENT IN THE FLOW MODEL =   240

 MAXIMUM STEPSIZE WHICH MEETS STABILITY CRITERION OF THE SINK & SOURCE TERM
 = 0.1000E+31(WHEN MIN. R.F.=1)  AT K=   0, I=   0, J=   0

 MAXIMUM STEPSIZE WHICH MEETS STABILITY CRITERION OF THE DISPERSION TERM
 = 0.5618E-02(WHEN MIN. R.F.=1)  AT K=   3, I=   2, J=  32
     1 CALLS TO GCG PACKAGE FOR TRANSPORT TIME STEP   4 IN FLOW TIME STEP  14 STRESS PERIOD   2
    17 TOTAL ITERATIONS
 
 SOLVING FOR HEAD 
 FLOW MODEL IS TRANSIENT
 FLOW MODEL CONTAINS CONSTANT-HEAD CELLS


 MAXIMUM STEPSIZE DURING WHICH ANY PARTICLE CANNOT MOVE MORE THAN ONE CELL
 = 0.1190    (WHEN MIN. R.F.=1)  AT K=   3, I=   2, J=  33

 MAXIMUM STEPSIZE WHICH MEETS STABILITY CRITERION OF THE ADVECTION TERM
 (FOR PURE FINITE-DIFFERENCE OPTION, MIXELM=0) 
 = 0.8156E-01(WHEN MIN. R.F.=1)  AT K=   3, I=   2, J=  32


 TOTAL NUMBER OF POINT SOURCES/SINKS PRESENT IN THE FLOW MODEL =   240

 MAXIMUM STEPSIZE WHICH MEETS STABILITY CRITERION OF THE SINK & SOURCE TERM
 = 0.1000E+31(WHEN MIN. R.F.=1)  AT K=   0, I=   0, J=   0

 MAXIMUM STEPSIZE WHICH MEETS STABILITY CRITERION OF THE DISPERSION TERM
 = 0.5618E-02(WHEN MIN. R.F.=1)  AT K=   3, I=   2, J=  32
     1 CALLS TO GCG PACKAGE FOR TRANSPORT TIME STEP   5 IN FLOW TIME STEP  14 STRESS PERIOD   2
    17 TOTAL ITERATIONS
 
 SOLVING FOR HEAD 
 FLOW MODEL IS TRANSIENT
 FLOW MODEL CONTAINS CONSTANT-HEAD CELLS


 MAXIMUM STEPSIZE DURING WHICH ANY PARTICLE CANNOT MOVE MORE THAN ONE CELL
 = 0.1190    (WHEN MIN. R.F.=1)  AT K=   3, I=   2, J=  33

 MAXIMUM STEPSIZE WHICH MEETS STABILITY CRITERION OF THE ADVECTION TERM
 (FOR PURE FINITE-DIFFERENCE OPTION, MIXELM=0) 
 = 0.8156E-01(WHEN MIN. R.F.=1)  AT K=   3, I=   2, J=  32


 TOTAL NUMBER OF POINT SOURCES/SINKS PRESENT IN THE FLOW MODEL =   240

 MAXIMUM STEPSIZE WHICH MEETS STABILITY CRITERION OF THE SINK & SOURCE TERM
 = 0.1000E+31(WHEN MIN. R.F.=1)  AT K=   0, I=   0, J=   0

 MAXIMUM STEPSIZE WHICH MEETS STABILITY CRITERION OF THE DISPERSION TERM
 = 0.5618E-02(WHEN MIN. R.F.=1)  AT K=   3, I=   2, J=  32
     1 CALLS TO GCG PACKAGE FOR TRANSPORT TIME STEP   6 IN FLOW TIME STEP  14 STRESS PERIOD   2
    17 TOTAL ITERATIONS
 
 SOLVING FOR HEAD 
 FLOW MODEL IS TRANSIENT
 FLOW MODEL CONTAINS CONSTANT-HEAD CELLS


 MAXIMUM STEPSIZE DURING WHICH ANY PARTICLE CANNOT MOVE MORE THAN ONE CELL
 = 0.1190    (WHEN MIN. R.F.=1)  AT K=   3, I=   2, J=  33

 MAXIMUM STEPSIZE WHICH MEETS STABILITY CRITERION OF THE ADVECTION TERM
 (FOR PURE FINITE-DIFFERENCE OPTION, MIXELM=0) 
 = 0.8156E-01(WHEN MIN. R.F.=1)  AT K=   3, I=   2, J=  32


 TOTAL NUMBER OF POINT SOURCES/SINKS PRESENT IN THE FLOW MODEL =   240

 MAXIMUM STEPSIZE WHICH MEETS STABILITY CRITERION OF THE SINK & SOURCE TERM
 = 0.1000E+31(WHEN MIN. R.F.=1)  AT K=   0, I=   0, J=   0

 MAXIMUM STEPSIZE WHICH MEETS STABILITY CRITERION OF THE DISPERSION TERM
 = 0.5618E-02(WHEN MIN. R.F.=1)  AT K=   3, I=   2, J=  32
     1 CALLS TO GCG PACKAGE FOR TRANSPORT TIME STEP   7 IN FLOW TIME STEP  14 STRESS PERIOD   2
    17 TOTAL ITERATIONS
 
 SOLVING FOR HEAD 
 FLOW MODEL IS TRANSIENT
 FLOW MODEL CONTAINS CONSTANT-HEAD CELLS


 MAXIMUM STEPSIZE DURING WHICH ANY PARTICLE CANNOT MOVE MORE THAN ONE CELL
 = 0.1190    (WHEN MIN. R.F.=1)  AT K=   3, I=   2, J=  33

 MAXIMUM STEPSIZE WHICH MEETS STABILITY CRITERION OF THE ADVECTION TERM
 (FOR PURE FINITE-DIFFERENCE OPTION, MIXELM=0) 
 = 0.8156E-01(WHEN MIN. R.F.=1)  AT K=   3, I=   2, J=  32


 TOTAL NUMBER OF POINT SOURCES/SINKS PRESENT IN THE FLOW MODEL =   240

 MAXIMUM STEPSIZE WHICH MEETS STABILITY CRITERION OF THE SINK & SOURCE TERM
 = 0.1000E+31(WHEN MIN. R.F.=1)  AT K=   0, I=   0, J=   0

 MAXIMUM STEPSIZE WHICH MEETS STABILITY CRITERION OF THE DISPERSION TERM
 = 0.5618E-02(WHEN MIN. R.F.=1)  AT K=   3, I=   2, J=  32
     1 CALLS TO GCG PACKAGE FOR TRANSPORT TIME STEP   8 IN FLOW TIME STEP  14 STRESS PERIOD   2
    17 TOTAL ITERATIONS
 
 SOLVING FOR HEAD 
 FLOW MODEL IS TRANSIENT
 FLOW MODEL CONTAINS CONSTANT-HEAD CELLS


 MAXIMUM STEPSIZE DURING WHICH ANY PARTICLE CANNOT MOVE MORE THAN ONE CELL
 = 0.1190    (WHEN MIN. R.F.=1)  AT K=   3, I=   2, J=  33

 MAXIMUM STEPSIZE WHICH MEETS STABILITY CRITERION OF THE ADVECTION TERM
 (FOR PURE FINITE-DIFFERENCE OPTION, MIXELM=0) 
 = 0.8156E-01(WHEN MIN. R.F.=1)  AT K=   3, I=   2, J=  32


 TOTAL NUMBER OF POINT SOURCES/SINKS PRESENT IN THE FLOW MODEL =   240

 MAXIMUM STEPSIZE WHICH MEETS STABILITY CRITERION OF THE SINK & SOURCE TERM
 = 0.1000E+31(WHEN MIN. R.F.=1)  AT K=   0, I=   0, J=   0

 MAXIMUM STEPSIZE WHICH MEETS STABILITY CRITERION OF THE DISPERSION TERM
 = 0.5618E-02(WHEN MIN. R.F.=1)  AT K=   3, I=   2, J=  32
     1 CALLS TO GCG PACKAGE FOR TRANSPORT TIME STEP   9 IN FLOW TIME STEP  14 STRESS PERIOD   2
    17 TOTAL ITERATIONS
 
 SOLVING FOR HEAD 
 FLOW MODEL IS TRANSIENT
 FLOW MODEL CONTAINS CONSTANT-HEAD CELLS


 MAXIMUM STEPSIZE DURING WHICH ANY PARTICLE CANNOT MOVE MORE THAN ONE CELL
 = 0.1190    (WHEN MIN. R.F.=1)  AT K=   3, I=   2, J=  33

 MAXIMUM STEPSIZE WHICH MEETS STABILITY CRITERION OF THE ADVECTION TERM
 (FOR PURE FINITE-DIFFERENCE OPTION, MIXELM=0) 
 = 0.8156E-01(WHEN MIN. R.F.=1)  AT K=   3, I=   2, J=  32


 TOTAL NUMBER OF POINT SOURCES/SINKS PRESENT IN THE FLOW MODEL =   240

 MAXIMUM STEPSIZE WHICH MEETS STABILITY CRITERION OF THE SINK & SOURCE TERM
 = 0.1000E+31(WHEN MIN. R.F.=1)  AT K=   0, I=   0, J=   0

 MAXIMUM STEPSIZE WHICH MEETS STABILITY CRITERION OF THE DISPERSION TERM
 = 0.5618E-02(WHEN MIN. R.F.=1)  AT K=   3, I=   2, J=  32
     1 CALLS TO GCG PACKAGE FOR TRANSPORT TIME STEP  10 IN FLOW TIME STEP  14 STRESS PERIOD   2
    17 TOTAL ITERATIONS



 >>>>>>>>>>>>>>>>>>>>>>>>>>>>>>>>>>>>>>>>>>>>>>>>>>>>>>>FOR COMPONENT NO. 01<<<<<<<<<<<<<<<<<<<<<<<<<<<<<<<<<<<<<<<<<<<<<<<<<<<<<<<


                                            -------------------------------------------
                                                      TRANSPORT STEP NO.   10
                                            -------------------------------------------

 TOTAL ELAPSED TIME SINCE BEGINNING OF SIMULATION =   14.89277    D   
 .....................................................................

                     CUMULATIVE MASS BUDGETS AT END OF TRANSPORT STEP   10, TIME STEP   14, STRESS PERIOD    2
                     ------------------------------------------------------------------------------------------

                                                             IN                           OUT
                                                      ----------------             ----------------
                               CONSTANT CONCENTRATION:    4037.503                   -1078.172    
                                        CONSTANT HEAD:    0.000000                    0.000000    
                               MASS STOR (FLOW MODEL):   0.1191679E-01              -0.2760343E-02
                                MASS STORAGE (SOLUTE):   0.5620034E-06               -2959.341    
                            ---------------------------------------------------------------------------
                                              [TOTAL]:    4037.515     KG            -4037.516     KG  

                                                          NET (IN - OUT):  -0.7256008E-03
                                                   DISCREPANCY (PERCENT):  -0.1797147E-04
 
 SOLVING FOR HEAD 
 FLOW MODEL IS TRANSIENT
 FLOW MODEL CONTAINS CONSTANT-HEAD CELLS


 MAXIMUM STEPSIZE DURING WHICH ANY PARTICLE CANNOT MOVE MORE THAN ONE CELL
 = 0.1190    (WHEN MIN. R.F.=1)  AT K=   3, I=   2, J=  33

 MAXIMUM STEPSIZE WHICH MEETS STABILITY CRITERION OF THE ADVECTION TERM
 (FOR PURE FINITE-DIFFERENCE OPTION, MIXELM=0) 
 = 0.8156E-01(WHEN MIN. R.F.=1)  AT K=   3, I=   2, J=  32


 TOTAL NUMBER OF POINT SOURCES/SINKS PRESENT IN THE FLOW MODEL =   240

 MAXIMUM STEPSIZE WHICH MEETS STABILITY CRITERION OF THE SINK & SOURCE TERM
 = 0.1000E+31(WHEN MIN. R.F.=1)  AT K=   0, I=   0, J=   0

 MAXIMUM STEPSIZE WHICH MEETS STABILITY CRITERION OF THE DISPERSION TERM
 = 0.5618E-02(WHEN MIN. R.F.=1)  AT K=   3, I=   2, J=  32
     1 CALLS TO GCG PACKAGE FOR TRANSPORT TIME STEP  11 IN FLOW TIME STEP  14 STRESS PERIOD   2
    17 TOTAL ITERATIONS
 
 SOLVING FOR HEAD 
 FLOW MODEL IS TRANSIENT
 FLOW MODEL CONTAINS CONSTANT-HEAD CELLS


 MAXIMUM STEPSIZE DURING WHICH ANY PARTICLE CANNOT MOVE MORE THAN ONE CELL
 = 0.1190    (WHEN MIN. R.F.=1)  AT K=   3, I=   2, J=  33

 MAXIMUM STEPSIZE WHICH MEETS STABILITY CRITERION OF THE ADVECTION TERM
 (FOR PURE FINITE-DIFFERENCE OPTION, MIXELM=0) 
 = 0.8156E-01(WHEN MIN. R.F.=1)  AT K=   3, I=   2, J=  32


 TOTAL NUMBER OF POINT SOURCES/SINKS PRESENT IN THE FLOW MODEL =   240

 MAXIMUM STEPSIZE WHICH MEETS STABILITY CRITERION OF THE SINK & SOURCE TERM
 = 0.1000E+31(WHEN MIN. R.F.=1)  AT K=   0, I=   0, J=   0

 MAXIMUM STEPSIZE WHICH MEETS STABILITY CRITERION OF THE DISPERSION TERM
 = 0.5618E-02(WHEN MIN. R.F.=1)  AT K=   3, I=   2, J=  32
     1 CALLS TO GCG PACKAGE FOR TRANSPORT TIME STEP  12 IN FLOW TIME STEP  14 STRESS PERIOD   2
     9 TOTAL ITERATIONS
  MAXIMUM CONCENTRATION CHANGES FOR EACH ITERATION:
  MAX. CHANGE LAYER,ROW,COL MAX. CHANGE LAYER,ROW,COL MAX. CHANGE LAYER,ROW,COL MAX. CHANGE LAYER,ROW,COL MAX. CHANGE LAYER,ROW,COL
 ------------------------------------------------------------------------------------------------------------------------------------
   0.5752E-03 ( 13,  3, 45)  0.9200E-04 (  6,  2, 60)  0.1276E-04 (  4,  2, 40)  0.7538E-05 (  3,  2, 33)  0.3189E-05 (  4,  2, 33)
   0.1158E-05 (  3,  2, 33)  0.2968E-06 (  2,  2, 33)  0.1041E-06 (  3,  2, 33)  0.2984E-07 (  3,  2, 34)


                                          ================================================
                                                         FROM TIME =   15.000     TO    16.000    

 
 SOLVING FOR HEAD 
 FLOW MODEL IS TRANSIENT
 FLOW MODEL CONTAINS CONSTANT-HEAD CELLS


 MAXIMUM STEPSIZE DURING WHICH ANY PARTICLE CANNOT MOVE MORE THAN ONE CELL
 = 0.1190    (WHEN MIN. R.F.=1)  AT K=   3, I=   2, J=  33

 MAXIMUM STEPSIZE WHICH MEETS STABILITY CRITERION OF THE ADVECTION TERM
 (FOR PURE FINITE-DIFFERENCE OPTION, MIXELM=0) 
 = 0.8156E-01(WHEN MIN. R.F.=1)  AT K=   3, I=   2, J=  32


 TOTAL NUMBER OF POINT SOURCES/SINKS PRESENT IN THE FLOW MODEL =   240

 MAXIMUM STEPSIZE WHICH MEETS STABILITY CRITERION OF THE SINK & SOURCE TERM
 = 0.1000E+31(WHEN MIN. R.F.=1)  AT K=   0, I=   0, J=   0

 MAXIMUM STEPSIZE WHICH MEETS STABILITY CRITERION OF THE DISPERSION TERM
 = 0.5618E-02(WHEN MIN. R.F.=1)  AT K=   3, I=   2, J=  32


     1 CALLS TO GCG PACKAGE FOR TRANSPORT TIME STEP   1 IN FLOW TIME STEP  15 STRESS PERIOD   2
    17 TOTAL ITERATIONS

 NO OUTPUT CONTROL FOR STRESS PERIOD    2   TIME STEP  15
 
 SOLVING FOR HEAD 
 FLOW MODEL IS TRANSIENT
 FLOW MODEL CONTAINS CONSTANT-HEAD CELLS


 MAXIMUM STEPSIZE DURING WHICH ANY PARTICLE CANNOT MOVE MORE THAN ONE CELL
 = 0.1190    (WHEN MIN. R.F.=1)  AT K=   3, I=   2, J=  33

 MAXIMUM STEPSIZE WHICH MEETS STABILITY CRITERION OF THE ADVECTION TERM
 (FOR PURE FINITE-DIFFERENCE OPTION, MIXELM=0) 
 = 0.8156E-01(WHEN MIN. R.F.=1)  AT K=   3, I=   2, J=  32


 TOTAL NUMBER OF POINT SOURCES/SINKS PRESENT IN THE FLOW MODEL =   240

 MAXIMUM STEPSIZE WHICH MEETS STABILITY CRITERION OF THE SINK & SOURCE TERM
 = 0.1000E+31(WHEN MIN. R.F.=1)  AT K=   0, I=   0, J=   0

 MAXIMUM STEPSIZE WHICH MEETS STABILITY CRITERION OF THE DISPERSION TERM
 = 0.5618E-02(WHEN MIN. R.F.=1)  AT K=   3, I=   2, J=  32
     1 CALLS TO GCG PACKAGE FOR TRANSPORT TIME STEP   2 IN FLOW TIME STEP  15 STRESS PERIOD   2
    17 TOTAL ITERATIONS
 
 SOLVING FOR HEAD 
 FLOW MODEL IS TRANSIENT
 FLOW MODEL CONTAINS CONSTANT-HEAD CELLS


 MAXIMUM STEPSIZE DURING WHICH ANY PARTICLE CANNOT MOVE MORE THAN ONE CELL
 = 0.1190    (WHEN MIN. R.F.=1)  AT K=   3, I=   2, J=  33

 MAXIMUM STEPSIZE WHICH MEETS STABILITY CRITERION OF THE ADVECTION TERM
 (FOR PURE FINITE-DIFFERENCE OPTION, MIXELM=0) 
 = 0.8156E-01(WHEN MIN. R.F.=1)  AT K=   3, I=   2, J=  32


 TOTAL NUMBER OF POINT SOURCES/SINKS PRESENT IN THE FLOW MODEL =   240

 MAXIMUM STEPSIZE WHICH MEETS STABILITY CRITERION OF THE SINK & SOURCE TERM
 = 0.1000E+31(WHEN MIN. R.F.=1)  AT K=   0, I=   0, J=   0

 MAXIMUM STEPSIZE WHICH MEETS STABILITY CRITERION OF THE DISPERSION TERM
 = 0.5618E-02(WHEN MIN. R.F.=1)  AT K=   3, I=   2, J=  32
     1 CALLS TO GCG PACKAGE FOR TRANSPORT TIME STEP   3 IN FLOW TIME STEP  15 STRESS PERIOD   2
    17 TOTAL ITERATIONS
 
 SOLVING FOR HEAD 
 FLOW MODEL IS TRANSIENT
 FLOW MODEL CONTAINS CONSTANT-HEAD CELLS


 MAXIMUM STEPSIZE DURING WHICH ANY PARTICLE CANNOT MOVE MORE THAN ONE CELL
 = 0.1190    (WHEN MIN. R.F.=1)  AT K=   3, I=   2, J=  33

 MAXIMUM STEPSIZE WHICH MEETS STABILITY CRITERION OF THE ADVECTION TERM
 (FOR PURE FINITE-DIFFERENCE OPTION, MIXELM=0) 
 = 0.8155E-01(WHEN MIN. R.F.=1)  AT K=   3, I=   2, J=  32


 TOTAL NUMBER OF POINT SOURCES/SINKS PRESENT IN THE FLOW MODEL =   240

 MAXIMUM STEPSIZE WHICH MEETS STABILITY CRITERION OF THE SINK & SOURCE TERM
 = 0.1000E+31(WHEN MIN. R.F.=1)  AT K=   0, I=   0, J=   0

 MAXIMUM STEPSIZE WHICH MEETS STABILITY CRITERION OF THE DISPERSION TERM
 = 0.5618E-02(WHEN MIN. R.F.=1)  AT K=   3, I=   2, J=  32
     1 CALLS TO GCG PACKAGE FOR TRANSPORT TIME STEP   4 IN FLOW TIME STEP  15 STRESS PERIOD   2
    17 TOTAL ITERATIONS
 
 SOLVING FOR HEAD 
 FLOW MODEL IS TRANSIENT
 FLOW MODEL CONTAINS CONSTANT-HEAD CELLS


 MAXIMUM STEPSIZE DURING WHICH ANY PARTICLE CANNOT MOVE MORE THAN ONE CELL
 = 0.1190    (WHEN MIN. R.F.=1)  AT K=   3, I=   2, J=  33

 MAXIMUM STEPSIZE WHICH MEETS STABILITY CRITERION OF THE ADVECTION TERM
 (FOR PURE FINITE-DIFFERENCE OPTION, MIXELM=0) 
 = 0.8155E-01(WHEN MIN. R.F.=1)  AT K=   3, I=   2, J=  32


 TOTAL NUMBER OF POINT SOURCES/SINKS PRESENT IN THE FLOW MODEL =   240

 MAXIMUM STEPSIZE WHICH MEETS STABILITY CRITERION OF THE SINK & SOURCE TERM
 = 0.1000E+31(WHEN MIN. R.F.=1)  AT K=   0, I=   0, J=   0

 MAXIMUM STEPSIZE WHICH MEETS STABILITY CRITERION OF THE DISPERSION TERM
 = 0.5618E-02(WHEN MIN. R.F.=1)  AT K=   3, I=   2, J=  32
     1 CALLS TO GCG PACKAGE FOR TRANSPORT TIME STEP   5 IN FLOW TIME STEP  15 STRESS PERIOD   2
    17 TOTAL ITERATIONS
 
 SOLVING FOR HEAD 
 FLOW MODEL IS TRANSIENT
 FLOW MODEL CONTAINS CONSTANT-HEAD CELLS


 MAXIMUM STEPSIZE DURING WHICH ANY PARTICLE CANNOT MOVE MORE THAN ONE CELL
 = 0.1190    (WHEN MIN. R.F.=1)  AT K=   3, I=   2, J=  33

 MAXIMUM STEPSIZE WHICH MEETS STABILITY CRITERION OF THE ADVECTION TERM
 (FOR PURE FINITE-DIFFERENCE OPTION, MIXELM=0) 
 = 0.8155E-01(WHEN MIN. R.F.=1)  AT K=   3, I=   2, J=  32


 TOTAL NUMBER OF POINT SOURCES/SINKS PRESENT IN THE FLOW MODEL =   240

 MAXIMUM STEPSIZE WHICH MEETS STABILITY CRITERION OF THE SINK & SOURCE TERM
 = 0.1000E+31(WHEN MIN. R.F.=1)  AT K=   0, I=   0, J=   0

 MAXIMUM STEPSIZE WHICH MEETS STABILITY CRITERION OF THE DISPERSION TERM
 = 0.5618E-02(WHEN MIN. R.F.=1)  AT K=   3, I=   2, J=  32
     1 CALLS TO GCG PACKAGE FOR TRANSPORT TIME STEP   6 IN FLOW TIME STEP  15 STRESS PERIOD   2
    17 TOTAL ITERATIONS
 
 SOLVING FOR HEAD 
 FLOW MODEL IS TRANSIENT
 FLOW MODEL CONTAINS CONSTANT-HEAD CELLS


 MAXIMUM STEPSIZE DURING WHICH ANY PARTICLE CANNOT MOVE MORE THAN ONE CELL
 = 0.1190    (WHEN MIN. R.F.=1)  AT K=   3, I=   2, J=  33

 MAXIMUM STEPSIZE WHICH MEETS STABILITY CRITERION OF THE ADVECTION TERM
 (FOR PURE FINITE-DIFFERENCE OPTION, MIXELM=0) 
 = 0.8155E-01(WHEN MIN. R.F.=1)  AT K=   3, I=   2, J=  32


 TOTAL NUMBER OF POINT SOURCES/SINKS PRESENT IN THE FLOW MODEL =   240

 MAXIMUM STEPSIZE WHICH MEETS STABILITY CRITERION OF THE SINK & SOURCE TERM
 = 0.1000E+31(WHEN MIN. R.F.=1)  AT K=   0, I=   0, J=   0

 MAXIMUM STEPSIZE WHICH MEETS STABILITY CRITERION OF THE DISPERSION TERM
 = 0.5618E-02(WHEN MIN. R.F.=1)  AT K=   3, I=   2, J=  32
     1 CALLS TO GCG PACKAGE FOR TRANSPORT TIME STEP   7 IN FLOW TIME STEP  15 STRESS PERIOD   2
    17 TOTAL ITERATIONS
 
 SOLVING FOR HEAD 
 FLOW MODEL IS TRANSIENT
 FLOW MODEL CONTAINS CONSTANT-HEAD CELLS


 MAXIMUM STEPSIZE DURING WHICH ANY PARTICLE CANNOT MOVE MORE THAN ONE CELL
 = 0.1190    (WHEN MIN. R.F.=1)  AT K=   3, I=   2, J=  33

 MAXIMUM STEPSIZE WHICH MEETS STABILITY CRITERION OF THE ADVECTION TERM
 (FOR PURE FINITE-DIFFERENCE OPTION, MIXELM=0) 
 = 0.8155E-01(WHEN MIN. R.F.=1)  AT K=   3, I=   2, J=  32


 TOTAL NUMBER OF POINT SOURCES/SINKS PRESENT IN THE FLOW MODEL =   240

 MAXIMUM STEPSIZE WHICH MEETS STABILITY CRITERION OF THE SINK & SOURCE TERM
 = 0.1000E+31(WHEN MIN. R.F.=1)  AT K=   0, I=   0, J=   0

 MAXIMUM STEPSIZE WHICH MEETS STABILITY CRITERION OF THE DISPERSION TERM
 = 0.5618E-02(WHEN MIN. R.F.=1)  AT K=   3, I=   2, J=  32
     1 CALLS TO GCG PACKAGE FOR TRANSPORT TIME STEP   8 IN FLOW TIME STEP  15 STRESS PERIOD   2
    17 TOTAL ITERATIONS
 
 SOLVING FOR HEAD 
 FLOW MODEL IS TRANSIENT
 FLOW MODEL CONTAINS CONSTANT-HEAD CELLS


 MAXIMUM STEPSIZE DURING WHICH ANY PARTICLE CANNOT MOVE MORE THAN ONE CELL
 = 0.1190    (WHEN MIN. R.F.=1)  AT K=   3, I=   2, J=  33

 MAXIMUM STEPSIZE WHICH MEETS STABILITY CRITERION OF THE ADVECTION TERM
 (FOR PURE FINITE-DIFFERENCE OPTION, MIXELM=0) 
 = 0.8155E-01(WHEN MIN. R.F.=1)  AT K=   3, I=   2, J=  32


 TOTAL NUMBER OF POINT SOURCES/SINKS PRESENT IN THE FLOW MODEL =   240

 MAXIMUM STEPSIZE WHICH MEETS STABILITY CRITERION OF THE SINK & SOURCE TERM
 = 0.1000E+31(WHEN MIN. R.F.=1)  AT K=   0, I=   0, J=   0

 MAXIMUM STEPSIZE WHICH MEETS STABILITY CRITERION OF THE DISPERSION TERM
 = 0.5618E-02(WHEN MIN. R.F.=1)  AT K=   3, I=   2, J=  32
     1 CALLS TO GCG PACKAGE FOR TRANSPORT TIME STEP   9 IN FLOW TIME STEP  15 STRESS PERIOD   2
    17 TOTAL ITERATIONS
 
 SOLVING FOR HEAD 
 FLOW MODEL IS TRANSIENT
 FLOW MODEL CONTAINS CONSTANT-HEAD CELLS


 MAXIMUM STEPSIZE DURING WHICH ANY PARTICLE CANNOT MOVE MORE THAN ONE CELL
 = 0.1190    (WHEN MIN. R.F.=1)  AT K=   3, I=   2, J=  33

 MAXIMUM STEPSIZE WHICH MEETS STABILITY CRITERION OF THE ADVECTION TERM
 (FOR PURE FINITE-DIFFERENCE OPTION, MIXELM=0) 
 = 0.8155E-01(WHEN MIN. R.F.=1)  AT K=   3, I=   2, J=  32


 TOTAL NUMBER OF POINT SOURCES/SINKS PRESENT IN THE FLOW MODEL =   240

 MAXIMUM STEPSIZE WHICH MEETS STABILITY CRITERION OF THE SINK & SOURCE TERM
 = 0.1000E+31(WHEN MIN. R.F.=1)  AT K=   0, I=   0, J=   0

 MAXIMUM STEPSIZE WHICH MEETS STABILITY CRITERION OF THE DISPERSION TERM
 = 0.5618E-02(WHEN MIN. R.F.=1)  AT K=   3, I=   2, J=  32
     1 CALLS TO GCG PACKAGE FOR TRANSPORT TIME STEP  10 IN FLOW TIME STEP  15 STRESS PERIOD   2
    17 TOTAL ITERATIONS



 >>>>>>>>>>>>>>>>>>>>>>>>>>>>>>>>>>>>>>>>>>>>>>>>>>>>>>>FOR COMPONENT NO. 01<<<<<<<<<<<<<<<<<<<<<<<<<<<<<<<<<<<<<<<<<<<<<<<<<<<<<<<


                                            -------------------------------------------
                                                      TRANSPORT STEP NO.   10
                                            -------------------------------------------

 TOTAL ELAPSED TIME SINCE BEGINNING OF SIMULATION =   15.89269    D   
 .....................................................................

                     CUMULATIVE MASS BUDGETS AT END OF TRANSPORT STEP   10, TIME STEP   15, STRESS PERIOD    2
                     ------------------------------------------------------------------------------------------

                                                             IN                           OUT
                                                      ----------------             ----------------
                               CONSTANT CONCENTRATION:    4206.653                   -1165.691    
                                        CONSTANT HEAD:    0.000000                    0.000000    
                               MASS STOR (FLOW MODEL):   0.1192981E-01              -0.2803562E-02
                                MASS STORAGE (SOLUTE):   0.5620034E-06               -3040.972    
                            ---------------------------------------------------------------------------
                                              [TOTAL]:    4206.665     KG            -4206.666     KG  

                                                          NET (IN - OUT):  -0.7902286E-03
                                                   DISCREPANCY (PERCENT):  -0.1878515E-04
 
 SOLVING FOR HEAD 
 FLOW MODEL IS TRANSIENT
 FLOW MODEL CONTAINS CONSTANT-HEAD CELLS


 MAXIMUM STEPSIZE DURING WHICH ANY PARTICLE CANNOT MOVE MORE THAN ONE CELL
 = 0.1190    (WHEN MIN. R.F.=1)  AT K=   3, I=   2, J=  33

 MAXIMUM STEPSIZE WHICH MEETS STABILITY CRITERION OF THE ADVECTION TERM
 (FOR PURE FINITE-DIFFERENCE OPTION, MIXELM=0) 
 = 0.8155E-01(WHEN MIN. R.F.=1)  AT K=   3, I=   2, J=  32


 TOTAL NUMBER OF POINT SOURCES/SINKS PRESENT IN THE FLOW MODEL =   240

 MAXIMUM STEPSIZE WHICH MEETS STABILITY CRITERION OF THE SINK & SOURCE TERM
 = 0.1000E+31(WHEN MIN. R.F.=1)  AT K=   0, I=   0, J=   0

 MAXIMUM STEPSIZE WHICH MEETS STABILITY CRITERION OF THE DISPERSION TERM
 = 0.5618E-02(WHEN MIN. R.F.=1)  AT K=   3, I=   2, J=  32
     1 CALLS TO GCG PACKAGE FOR TRANSPORT TIME STEP  11 IN FLOW TIME STEP  15 STRESS PERIOD   2
    17 TOTAL ITERATIONS
 
 SOLVING FOR HEAD 
 FLOW MODEL IS TRANSIENT
 FLOW MODEL CONTAINS CONSTANT-HEAD CELLS


 MAXIMUM STEPSIZE DURING WHICH ANY PARTICLE CANNOT MOVE MORE THAN ONE CELL
 = 0.1190    (WHEN MIN. R.F.=1)  AT K=   3, I=   2, J=  33

 MAXIMUM STEPSIZE WHICH MEETS STABILITY CRITERION OF THE ADVECTION TERM
 (FOR PURE FINITE-DIFFERENCE OPTION, MIXELM=0) 
 = 0.8155E-01(WHEN MIN. R.F.=1)  AT K=   3, I=   2, J=  32


 TOTAL NUMBER OF POINT SOURCES/SINKS PRESENT IN THE FLOW MODEL =   240

 MAXIMUM STEPSIZE WHICH MEETS STABILITY CRITERION OF THE SINK & SOURCE TERM
 = 0.1000E+31(WHEN MIN. R.F.=1)  AT K=   0, I=   0, J=   0

 MAXIMUM STEPSIZE WHICH MEETS STABILITY CRITERION OF THE DISPERSION TERM
 = 0.5618E-02(WHEN MIN. R.F.=1)  AT K=   3, I=   2, J=  32
     1 CALLS TO GCG PACKAGE FOR TRANSPORT TIME STEP  12 IN FLOW TIME STEP  15 STRESS PERIOD   2
     8 TOTAL ITERATIONS
  MAXIMUM CONCENTRATION CHANGES FOR EACH ITERATION:
  MAX. CHANGE LAYER,ROW,COL MAX. CHANGE LAYER,ROW,COL MAX. CHANGE LAYER,ROW,COL MAX. CHANGE LAYER,ROW,COL MAX. CHANGE LAYER,ROW,COL
 ------------------------------------------------------------------------------------------------------------------------------------
   0.5332E-03 ( 13,  3, 45)  0.8570E-04 (  6,  2, 60)  0.1135E-04 (  4,  2, 40)  0.6724E-05 (  3,  2, 33)  0.2857E-05 (  4,  2, 33)
   0.1045E-05 (  3,  2, 33)  0.2682E-06 (  2,  2, 33)  0.9458E-07 (  3,  2, 33)


                                          ================================================
                                                         FROM TIME =   16.000     TO    17.000    

 
 SOLVING FOR HEAD 
 FLOW MODEL IS TRANSIENT
 FLOW MODEL CONTAINS CONSTANT-HEAD CELLS


 MAXIMUM STEPSIZE DURING WHICH ANY PARTICLE CANNOT MOVE MORE THAN ONE CELL
 = 0.1190    (WHEN MIN. R.F.=1)  AT K=   3, I=   2, J=  33

 MAXIMUM STEPSIZE WHICH MEETS STABILITY CRITERION OF THE ADVECTION TERM
 (FOR PURE FINITE-DIFFERENCE OPTION, MIXELM=0) 
 = 0.8155E-01(WHEN MIN. R.F.=1)  AT K=   3, I=   2, J=  32


 TOTAL NUMBER OF POINT SOURCES/SINKS PRESENT IN THE FLOW MODEL =   240

 MAXIMUM STEPSIZE WHICH MEETS STABILITY CRITERION OF THE SINK & SOURCE TERM
 = 0.1000E+31(WHEN MIN. R.F.=1)  AT K=   0, I=   0, J=   0

 MAXIMUM STEPSIZE WHICH MEETS STABILITY CRITERION OF THE DISPERSION TERM
 = 0.5618E-02(WHEN MIN. R.F.=1)  AT K=   3, I=   2, J=  32


     1 CALLS TO GCG PACKAGE FOR TRANSPORT TIME STEP   1 IN FLOW TIME STEP  16 STRESS PERIOD   2
    17 TOTAL ITERATIONS

 NO OUTPUT CONTROL FOR STRESS PERIOD    2   TIME STEP  16
 
 SOLVING FOR HEAD 
 FLOW MODEL IS TRANSIENT
 FLOW MODEL CONTAINS CONSTANT-HEAD CELLS


 MAXIMUM STEPSIZE DURING WHICH ANY PARTICLE CANNOT MOVE MORE THAN ONE CELL
 = 0.1190    (WHEN MIN. R.F.=1)  AT K=   3, I=   2, J=  33

 MAXIMUM STEPSIZE WHICH MEETS STABILITY CRITERION OF THE ADVECTION TERM
 (FOR PURE FINITE-DIFFERENCE OPTION, MIXELM=0) 
 = 0.8155E-01(WHEN MIN. R.F.=1)  AT K=   3, I=   2, J=  32


 TOTAL NUMBER OF POINT SOURCES/SINKS PRESENT IN THE FLOW MODEL =   240

 MAXIMUM STEPSIZE WHICH MEETS STABILITY CRITERION OF THE SINK & SOURCE TERM
 = 0.1000E+31(WHEN MIN. R.F.=1)  AT K=   0, I=   0, J=   0

 MAXIMUM STEPSIZE WHICH MEETS STABILITY CRITERION OF THE DISPERSION TERM
 = 0.5618E-02(WHEN MIN. R.F.=1)  AT K=   3, I=   2, J=  32
     1 CALLS TO GCG PACKAGE FOR TRANSPORT TIME STEP   2 IN FLOW TIME STEP  16 STRESS PERIOD   2
    17 TOTAL ITERATIONS
 
 SOLVING FOR HEAD 
 FLOW MODEL IS TRANSIENT
 FLOW MODEL CONTAINS CONSTANT-HEAD CELLS


 MAXIMUM STEPSIZE DURING WHICH ANY PARTICLE CANNOT MOVE MORE THAN ONE CELL
 = 0.1190    (WHEN MIN. R.F.=1)  AT K=   3, I=   2, J=  33

 MAXIMUM STEPSIZE WHICH MEETS STABILITY CRITERION OF THE ADVECTION TERM
 (FOR PURE FINITE-DIFFERENCE OPTION, MIXELM=0) 
 = 0.8155E-01(WHEN MIN. R.F.=1)  AT K=   3, I=   2, J=  32


 TOTAL NUMBER OF POINT SOURCES/SINKS PRESENT IN THE FLOW MODEL =   240

 MAXIMUM STEPSIZE WHICH MEETS STABILITY CRITERION OF THE SINK & SOURCE TERM
 = 0.1000E+31(WHEN MIN. R.F.=1)  AT K=   0, I=   0, J=   0

 MAXIMUM STEPSIZE WHICH MEETS STABILITY CRITERION OF THE DISPERSION TERM
 = 0.5618E-02(WHEN MIN. R.F.=1)  AT K=   3, I=   2, J=  32
     1 CALLS TO GCG PACKAGE FOR TRANSPORT TIME STEP   3 IN FLOW TIME STEP  16 STRESS PERIOD   2
    17 TOTAL ITERATIONS
 
 SOLVING FOR HEAD 
 FLOW MODEL IS TRANSIENT
 FLOW MODEL CONTAINS CONSTANT-HEAD CELLS


 MAXIMUM STEPSIZE DURING WHICH ANY PARTICLE CANNOT MOVE MORE THAN ONE CELL
 = 0.1190    (WHEN MIN. R.F.=1)  AT K=   3, I=   2, J=  33

 MAXIMUM STEPSIZE WHICH MEETS STABILITY CRITERION OF THE ADVECTION TERM
 (FOR PURE FINITE-DIFFERENCE OPTION, MIXELM=0) 
 = 0.8155E-01(WHEN MIN. R.F.=1)  AT K=   3, I=   2, J=  32


 TOTAL NUMBER OF POINT SOURCES/SINKS PRESENT IN THE FLOW MODEL =   240

 MAXIMUM STEPSIZE WHICH MEETS STABILITY CRITERION OF THE SINK & SOURCE TERM
 = 0.1000E+31(WHEN MIN. R.F.=1)  AT K=   0, I=   0, J=   0

 MAXIMUM STEPSIZE WHICH MEETS STABILITY CRITERION OF THE DISPERSION TERM
 = 0.5618E-02(WHEN MIN. R.F.=1)  AT K=   3, I=   2, J=  32
     1 CALLS TO GCG PACKAGE FOR TRANSPORT TIME STEP   4 IN FLOW TIME STEP  16 STRESS PERIOD   2
    16 TOTAL ITERATIONS
 
 SOLVING FOR HEAD 
 FLOW MODEL IS TRANSIENT
 FLOW MODEL CONTAINS CONSTANT-HEAD CELLS


 MAXIMUM STEPSIZE DURING WHICH ANY PARTICLE CANNOT MOVE MORE THAN ONE CELL
 = 0.1190    (WHEN MIN. R.F.=1)  AT K=   3, I=   2, J=  33

 MAXIMUM STEPSIZE WHICH MEETS STABILITY CRITERION OF THE ADVECTION TERM
 (FOR PURE FINITE-DIFFERENCE OPTION, MIXELM=0) 
 = 0.8155E-01(WHEN MIN. R.F.=1)  AT K=   3, I=   2, J=  32


 TOTAL NUMBER OF POINT SOURCES/SINKS PRESENT IN THE FLOW MODEL =   240

 MAXIMUM STEPSIZE WHICH MEETS STABILITY CRITERION OF THE SINK & SOURCE TERM
 = 0.1000E+31(WHEN MIN. R.F.=1)  AT K=   0, I=   0, J=   0

 MAXIMUM STEPSIZE WHICH MEETS STABILITY CRITERION OF THE DISPERSION TERM
 = 0.5618E-02(WHEN MIN. R.F.=1)  AT K=   3, I=   2, J=  32
     1 CALLS TO GCG PACKAGE FOR TRANSPORT TIME STEP   5 IN FLOW TIME STEP  16 STRESS PERIOD   2
    16 TOTAL ITERATIONS
 
 SOLVING FOR HEAD 
 FLOW MODEL IS TRANSIENT
 FLOW MODEL CONTAINS CONSTANT-HEAD CELLS


 MAXIMUM STEPSIZE DURING WHICH ANY PARTICLE CANNOT MOVE MORE THAN ONE CELL
 = 0.1190    (WHEN MIN. R.F.=1)  AT K=   3, I=   2, J=  33

 MAXIMUM STEPSIZE WHICH MEETS STABILITY CRITERION OF THE ADVECTION TERM
 (FOR PURE FINITE-DIFFERENCE OPTION, MIXELM=0) 
 = 0.8155E-01(WHEN MIN. R.F.=1)  AT K=   3, I=   2, J=  32


 TOTAL NUMBER OF POINT SOURCES/SINKS PRESENT IN THE FLOW MODEL =   240

 MAXIMUM STEPSIZE WHICH MEETS STABILITY CRITERION OF THE SINK & SOURCE TERM
 = 0.1000E+31(WHEN MIN. R.F.=1)  AT K=   0, I=   0, J=   0

 MAXIMUM STEPSIZE WHICH MEETS STABILITY CRITERION OF THE DISPERSION TERM
 = 0.5617E-02(WHEN MIN. R.F.=1)  AT K=   3, I=   2, J=  32
     1 CALLS TO GCG PACKAGE FOR TRANSPORT TIME STEP   6 IN FLOW TIME STEP  16 STRESS PERIOD   2
    16 TOTAL ITERATIONS
 
 SOLVING FOR HEAD 
 FLOW MODEL IS TRANSIENT
 FLOW MODEL CONTAINS CONSTANT-HEAD CELLS


 MAXIMUM STEPSIZE DURING WHICH ANY PARTICLE CANNOT MOVE MORE THAN ONE CELL
 = 0.1190    (WHEN MIN. R.F.=1)  AT K=   3, I=   2, J=  33

 MAXIMUM STEPSIZE WHICH MEETS STABILITY CRITERION OF THE ADVECTION TERM
 (FOR PURE FINITE-DIFFERENCE OPTION, MIXELM=0) 
 = 0.8155E-01(WHEN MIN. R.F.=1)  AT K=   3, I=   2, J=  32


 TOTAL NUMBER OF POINT SOURCES/SINKS PRESENT IN THE FLOW MODEL =   240

 MAXIMUM STEPSIZE WHICH MEETS STABILITY CRITERION OF THE SINK & SOURCE TERM
 = 0.1000E+31(WHEN MIN. R.F.=1)  AT K=   0, I=   0, J=   0

 MAXIMUM STEPSIZE WHICH MEETS STABILITY CRITERION OF THE DISPERSION TERM
 = 0.5617E-02(WHEN MIN. R.F.=1)  AT K=   3, I=   2, J=  32
     1 CALLS TO GCG PACKAGE FOR TRANSPORT TIME STEP   7 IN FLOW TIME STEP  16 STRESS PERIOD   2
    16 TOTAL ITERATIONS
 
 SOLVING FOR HEAD 
 FLOW MODEL IS TRANSIENT
 FLOW MODEL CONTAINS CONSTANT-HEAD CELLS


 MAXIMUM STEPSIZE DURING WHICH ANY PARTICLE CANNOT MOVE MORE THAN ONE CELL
 = 0.1190    (WHEN MIN. R.F.=1)  AT K=   3, I=   2, J=  33

 MAXIMUM STEPSIZE WHICH MEETS STABILITY CRITERION OF THE ADVECTION TERM
 (FOR PURE FINITE-DIFFERENCE OPTION, MIXELM=0) 
 = 0.8155E-01(WHEN MIN. R.F.=1)  AT K=   3, I=   2, J=  32


 TOTAL NUMBER OF POINT SOURCES/SINKS PRESENT IN THE FLOW MODEL =   240

 MAXIMUM STEPSIZE WHICH MEETS STABILITY CRITERION OF THE SINK & SOURCE TERM
 = 0.1000E+31(WHEN MIN. R.F.=1)  AT K=   0, I=   0, J=   0

 MAXIMUM STEPSIZE WHICH MEETS STABILITY CRITERION OF THE DISPERSION TERM
 = 0.5617E-02(WHEN MIN. R.F.=1)  AT K=   3, I=   2, J=  32
     1 CALLS TO GCG PACKAGE FOR TRANSPORT TIME STEP   8 IN FLOW TIME STEP  16 STRESS PERIOD   2
    16 TOTAL ITERATIONS
 
 SOLVING FOR HEAD 
 FLOW MODEL IS TRANSIENT
 FLOW MODEL CONTAINS CONSTANT-HEAD CELLS


 MAXIMUM STEPSIZE DURING WHICH ANY PARTICLE CANNOT MOVE MORE THAN ONE CELL
 = 0.1190    (WHEN MIN. R.F.=1)  AT K=   3, I=   2, J=  33

 MAXIMUM STEPSIZE WHICH MEETS STABILITY CRITERION OF THE ADVECTION TERM
 (FOR PURE FINITE-DIFFERENCE OPTION, MIXELM=0) 
 = 0.8155E-01(WHEN MIN. R.F.=1)  AT K=   3, I=   2, J=  32


 TOTAL NUMBER OF POINT SOURCES/SINKS PRESENT IN THE FLOW MODEL =   240

 MAXIMUM STEPSIZE WHICH MEETS STABILITY CRITERION OF THE SINK & SOURCE TERM
 = 0.1000E+31(WHEN MIN. R.F.=1)  AT K=   0, I=   0, J=   0

 MAXIMUM STEPSIZE WHICH MEETS STABILITY CRITERION OF THE DISPERSION TERM
 = 0.5617E-02(WHEN MIN. R.F.=1)  AT K=   3, I=   2, J=  32
     1 CALLS TO GCG PACKAGE FOR TRANSPORT TIME STEP   9 IN FLOW TIME STEP  16 STRESS PERIOD   2
    16 TOTAL ITERATIONS
 
 SOLVING FOR HEAD 
 FLOW MODEL IS TRANSIENT
 FLOW MODEL CONTAINS CONSTANT-HEAD CELLS


 MAXIMUM STEPSIZE DURING WHICH ANY PARTICLE CANNOT MOVE MORE THAN ONE CELL
 = 0.1190    (WHEN MIN. R.F.=1)  AT K=   3, I=   2, J=  33

 MAXIMUM STEPSIZE WHICH MEETS STABILITY CRITERION OF THE ADVECTION TERM
 (FOR PURE FINITE-DIFFERENCE OPTION, MIXELM=0) 
 = 0.8155E-01(WHEN MIN. R.F.=1)  AT K=   3, I=   2, J=  32


 TOTAL NUMBER OF POINT SOURCES/SINKS PRESENT IN THE FLOW MODEL =   240

 MAXIMUM STEPSIZE WHICH MEETS STABILITY CRITERION OF THE SINK & SOURCE TERM
 = 0.1000E+31(WHEN MIN. R.F.=1)  AT K=   0, I=   0, J=   0

 MAXIMUM STEPSIZE WHICH MEETS STABILITY CRITERION OF THE DISPERSION TERM
 = 0.5617E-02(WHEN MIN. R.F.=1)  AT K=   3, I=   2, J=  32
     1 CALLS TO GCG PACKAGE FOR TRANSPORT TIME STEP  10 IN FLOW TIME STEP  16 STRESS PERIOD   2
    16 TOTAL ITERATIONS



 >>>>>>>>>>>>>>>>>>>>>>>>>>>>>>>>>>>>>>>>>>>>>>>>>>>>>>>FOR COMPONENT NO. 01<<<<<<<<<<<<<<<<<<<<<<<<<<<<<<<<<<<<<<<<<<<<<<<<<<<<<<<


                                            -------------------------------------------
                                                      TRANSPORT STEP NO.   10
                                            -------------------------------------------

 TOTAL ELAPSED TIME SINCE BEGINNING OF SIMULATION =   16.89261    D   
 .....................................................................

                     CUMULATIVE MASS BUDGETS AT END OF TRANSPORT STEP   10, TIME STEP   16, STRESS PERIOD    2
                     ------------------------------------------------------------------------------------------

                                                             IN                           OUT
                                                      ----------------             ----------------
                               CONSTANT CONCENTRATION:    4371.066                   -1253.617    
                                        CONSTANT HEAD:    0.000000                    0.000000    
                               MASS STOR (FLOW MODEL):   0.1194400E-01              -0.2842668E-02
                                MASS STORAGE (SOLUTE):   0.5620034E-06               -3117.460    
                            ---------------------------------------------------------------------------
                                              [TOTAL]:    4371.078     KG            -4371.079     KG  

                                                          NET (IN - OUT):  -0.8760065E-03
                                                   DISCREPANCY (PERCENT):  -0.2004097E-04
 
 SOLVING FOR HEAD 
 FLOW MODEL IS TRANSIENT
 FLOW MODEL CONTAINS CONSTANT-HEAD CELLS


 MAXIMUM STEPSIZE DURING WHICH ANY PARTICLE CANNOT MOVE MORE THAN ONE CELL
 = 0.1190    (WHEN MIN. R.F.=1)  AT K=   3, I=   2, J=  33

 MAXIMUM STEPSIZE WHICH MEETS STABILITY CRITERION OF THE ADVECTION TERM
 (FOR PURE FINITE-DIFFERENCE OPTION, MIXELM=0) 
 = 0.8154E-01(WHEN MIN. R.F.=1)  AT K=   3, I=   2, J=  32


 TOTAL NUMBER OF POINT SOURCES/SINKS PRESENT IN THE FLOW MODEL =   240

 MAXIMUM STEPSIZE WHICH MEETS STABILITY CRITERION OF THE SINK & SOURCE TERM
 = 0.1000E+31(WHEN MIN. R.F.=1)  AT K=   0, I=   0, J=   0

 MAXIMUM STEPSIZE WHICH MEETS STABILITY CRITERION OF THE DISPERSION TERM
 = 0.5617E-02(WHEN MIN. R.F.=1)  AT K=   3, I=   2, J=  32
     1 CALLS TO GCG PACKAGE FOR TRANSPORT TIME STEP  11 IN FLOW TIME STEP  16 STRESS PERIOD   2
    16 TOTAL ITERATIONS
 
 SOLVING FOR HEAD 
 FLOW MODEL IS TRANSIENT
 FLOW MODEL CONTAINS CONSTANT-HEAD CELLS


 MAXIMUM STEPSIZE DURING WHICH ANY PARTICLE CANNOT MOVE MORE THAN ONE CELL
 = 0.1190    (WHEN MIN. R.F.=1)  AT K=   3, I=   2, J=  33

 MAXIMUM STEPSIZE WHICH MEETS STABILITY CRITERION OF THE ADVECTION TERM
 (FOR PURE FINITE-DIFFERENCE OPTION, MIXELM=0) 
 = 0.8154E-01(WHEN MIN. R.F.=1)  AT K=   3, I=   2, J=  32


 TOTAL NUMBER OF POINT SOURCES/SINKS PRESENT IN THE FLOW MODEL =   240

 MAXIMUM STEPSIZE WHICH MEETS STABILITY CRITERION OF THE SINK & SOURCE TERM
 = 0.1000E+31(WHEN MIN. R.F.=1)  AT K=   0, I=   0, J=   0

 MAXIMUM STEPSIZE WHICH MEETS STABILITY CRITERION OF THE DISPERSION TERM
 = 0.5617E-02(WHEN MIN. R.F.=1)  AT K=   3, I=   2, J=  32
     1 CALLS TO GCG PACKAGE FOR TRANSPORT TIME STEP  12 IN FLOW TIME STEP  16 STRESS PERIOD   2
     8 TOTAL ITERATIONS
  MAXIMUM CONCENTRATION CHANGES FOR EACH ITERATION:
  MAX. CHANGE LAYER,ROW,COL MAX. CHANGE LAYER,ROW,COL MAX. CHANGE LAYER,ROW,COL MAX. CHANGE LAYER,ROW,COL MAX. CHANGE LAYER,ROW,COL
 ------------------------------------------------------------------------------------------------------------------------------------
   0.5017E-03 ( 13,  3, 46)  0.8004E-04 (  6,  2, 60)  0.1016E-04 (  4,  2, 40)  0.6016E-05 (  3,  2, 33)  0.2562E-05 (  4,  2, 33)
   0.9403E-06 (  3,  2, 33)  0.2412E-06 (  2,  2, 33)  0.8492E-07 (  3,  2, 33)


                                          ================================================
                                                         FROM TIME =   17.000     TO    18.000    

 
 SOLVING FOR HEAD 
 FLOW MODEL IS TRANSIENT
 FLOW MODEL CONTAINS CONSTANT-HEAD CELLS


 MAXIMUM STEPSIZE DURING WHICH ANY PARTICLE CANNOT MOVE MORE THAN ONE CELL
 = 0.1190    (WHEN MIN. R.F.=1)  AT K=   3, I=   2, J=  33

 MAXIMUM STEPSIZE WHICH MEETS STABILITY CRITERION OF THE ADVECTION TERM
 (FOR PURE FINITE-DIFFERENCE OPTION, MIXELM=0) 
 = 0.8154E-01(WHEN MIN. R.F.=1)  AT K=   3, I=   2, J=  32


 TOTAL NUMBER OF POINT SOURCES/SINKS PRESENT IN THE FLOW MODEL =   240

 MAXIMUM STEPSIZE WHICH MEETS STABILITY CRITERION OF THE SINK & SOURCE TERM
 = 0.1000E+31(WHEN MIN. R.F.=1)  AT K=   0, I=   0, J=   0

 MAXIMUM STEPSIZE WHICH MEETS STABILITY CRITERION OF THE DISPERSION TERM
 = 0.5617E-02(WHEN MIN. R.F.=1)  AT K=   3, I=   2, J=  32


     1 CALLS TO GCG PACKAGE FOR TRANSPORT TIME STEP   1 IN FLOW TIME STEP  17 STRESS PERIOD   2
    16 TOTAL ITERATIONS

 NO OUTPUT CONTROL FOR STRESS PERIOD    2   TIME STEP  17
 
 SOLVING FOR HEAD 
 FLOW MODEL IS TRANSIENT
 FLOW MODEL CONTAINS CONSTANT-HEAD CELLS


 MAXIMUM STEPSIZE DURING WHICH ANY PARTICLE CANNOT MOVE MORE THAN ONE CELL
 = 0.1190    (WHEN MIN. R.F.=1)  AT K=   3, I=   2, J=  33

 MAXIMUM STEPSIZE WHICH MEETS STABILITY CRITERION OF THE ADVECTION TERM
 (FOR PURE FINITE-DIFFERENCE OPTION, MIXELM=0) 
 = 0.8154E-01(WHEN MIN. R.F.=1)  AT K=   3, I=   2, J=  32


 TOTAL NUMBER OF POINT SOURCES/SINKS PRESENT IN THE FLOW MODEL =   240

 MAXIMUM STEPSIZE WHICH MEETS STABILITY CRITERION OF THE SINK & SOURCE TERM
 = 0.1000E+31(WHEN MIN. R.F.=1)  AT K=   0, I=   0, J=   0

 MAXIMUM STEPSIZE WHICH MEETS STABILITY CRITERION OF THE DISPERSION TERM
 = 0.5617E-02(WHEN MIN. R.F.=1)  AT K=   3, I=   2, J=  32
     1 CALLS TO GCG PACKAGE FOR TRANSPORT TIME STEP   2 IN FLOW TIME STEP  17 STRESS PERIOD   2
    16 TOTAL ITERATIONS
 
 SOLVING FOR HEAD 
 FLOW MODEL IS TRANSIENT
 FLOW MODEL CONTAINS CONSTANT-HEAD CELLS


 MAXIMUM STEPSIZE DURING WHICH ANY PARTICLE CANNOT MOVE MORE THAN ONE CELL
 = 0.1190    (WHEN MIN. R.F.=1)  AT K=   3, I=   2, J=  33

 MAXIMUM STEPSIZE WHICH MEETS STABILITY CRITERION OF THE ADVECTION TERM
 (FOR PURE FINITE-DIFFERENCE OPTION, MIXELM=0) 
 = 0.8154E-01(WHEN MIN. R.F.=1)  AT K=   3, I=   2, J=  32


 TOTAL NUMBER OF POINT SOURCES/SINKS PRESENT IN THE FLOW MODEL =   240

 MAXIMUM STEPSIZE WHICH MEETS STABILITY CRITERION OF THE SINK & SOURCE TERM
 = 0.1000E+31(WHEN MIN. R.F.=1)  AT K=   0, I=   0, J=   0

 MAXIMUM STEPSIZE WHICH MEETS STABILITY CRITERION OF THE DISPERSION TERM
 = 0.5617E-02(WHEN MIN. R.F.=1)  AT K=   3, I=   2, J=  32
     1 CALLS TO GCG PACKAGE FOR TRANSPORT TIME STEP   3 IN FLOW TIME STEP  17 STRESS PERIOD   2
    16 TOTAL ITERATIONS
 
 SOLVING FOR HEAD 
 FLOW MODEL IS TRANSIENT
 FLOW MODEL CONTAINS CONSTANT-HEAD CELLS


 MAXIMUM STEPSIZE DURING WHICH ANY PARTICLE CANNOT MOVE MORE THAN ONE CELL
 = 0.1190    (WHEN MIN. R.F.=1)  AT K=   3, I=   2, J=  33

 MAXIMUM STEPSIZE WHICH MEETS STABILITY CRITERION OF THE ADVECTION TERM
 (FOR PURE FINITE-DIFFERENCE OPTION, MIXELM=0) 
 = 0.8154E-01(WHEN MIN. R.F.=1)  AT K=   3, I=   2, J=  32


 TOTAL NUMBER OF POINT SOURCES/SINKS PRESENT IN THE FLOW MODEL =   240

 MAXIMUM STEPSIZE WHICH MEETS STABILITY CRITERION OF THE SINK & SOURCE TERM
 = 0.1000E+31(WHEN MIN. R.F.=1)  AT K=   0, I=   0, J=   0

 MAXIMUM STEPSIZE WHICH MEETS STABILITY CRITERION OF THE DISPERSION TERM
 = 0.5617E-02(WHEN MIN. R.F.=1)  AT K=   3, I=   2, J=  32
     1 CALLS TO GCG PACKAGE FOR TRANSPORT TIME STEP   4 IN FLOW TIME STEP  17 STRESS PERIOD   2
    16 TOTAL ITERATIONS
 
 SOLVING FOR HEAD 
 FLOW MODEL IS TRANSIENT
 FLOW MODEL CONTAINS CONSTANT-HEAD CELLS


 MAXIMUM STEPSIZE DURING WHICH ANY PARTICLE CANNOT MOVE MORE THAN ONE CELL
 = 0.1190    (WHEN MIN. R.F.=1)  AT K=   3, I=   2, J=  33

 MAXIMUM STEPSIZE WHICH MEETS STABILITY CRITERION OF THE ADVECTION TERM
 (FOR PURE FINITE-DIFFERENCE OPTION, MIXELM=0) 
 = 0.8154E-01(WHEN MIN. R.F.=1)  AT K=   3, I=   2, J=  32


 TOTAL NUMBER OF POINT SOURCES/SINKS PRESENT IN THE FLOW MODEL =   240

 MAXIMUM STEPSIZE WHICH MEETS STABILITY CRITERION OF THE SINK & SOURCE TERM
 = 0.1000E+31(WHEN MIN. R.F.=1)  AT K=   0, I=   0, J=   0

 MAXIMUM STEPSIZE WHICH MEETS STABILITY CRITERION OF THE DISPERSION TERM
 = 0.5617E-02(WHEN MIN. R.F.=1)  AT K=   3, I=   2, J=  32
     1 CALLS TO GCG PACKAGE FOR TRANSPORT TIME STEP   5 IN FLOW TIME STEP  17 STRESS PERIOD   2
    16 TOTAL ITERATIONS
 
 SOLVING FOR HEAD 
 FLOW MODEL IS TRANSIENT
 FLOW MODEL CONTAINS CONSTANT-HEAD CELLS


 MAXIMUM STEPSIZE DURING WHICH ANY PARTICLE CANNOT MOVE MORE THAN ONE CELL
 = 0.1190    (WHEN MIN. R.F.=1)  AT K=   3, I=   2, J=  33

 MAXIMUM STEPSIZE WHICH MEETS STABILITY CRITERION OF THE ADVECTION TERM
 (FOR PURE FINITE-DIFFERENCE OPTION, MIXELM=0) 
 = 0.8154E-01(WHEN MIN. R.F.=1)  AT K=   3, I=   2, J=  32


 TOTAL NUMBER OF POINT SOURCES/SINKS PRESENT IN THE FLOW MODEL =   240

 MAXIMUM STEPSIZE WHICH MEETS STABILITY CRITERION OF THE SINK & SOURCE TERM
 = 0.1000E+31(WHEN MIN. R.F.=1)  AT K=   0, I=   0, J=   0

 MAXIMUM STEPSIZE WHICH MEETS STABILITY CRITERION OF THE DISPERSION TERM
 = 0.5617E-02(WHEN MIN. R.F.=1)  AT K=   3, I=   2, J=  32
     1 CALLS TO GCG PACKAGE FOR TRANSPORT TIME STEP   6 IN FLOW TIME STEP  17 STRESS PERIOD   2
    16 TOTAL ITERATIONS
 
 SOLVING FOR HEAD 
 FLOW MODEL IS TRANSIENT
 FLOW MODEL CONTAINS CONSTANT-HEAD CELLS


 MAXIMUM STEPSIZE DURING WHICH ANY PARTICLE CANNOT MOVE MORE THAN ONE CELL
 = 0.1190    (WHEN MIN. R.F.=1)  AT K=   3, I=   2, J=  33

 MAXIMUM STEPSIZE WHICH MEETS STABILITY CRITERION OF THE ADVECTION TERM
 (FOR PURE FINITE-DIFFERENCE OPTION, MIXELM=0) 
 = 0.8154E-01(WHEN MIN. R.F.=1)  AT K=   3, I=   2, J=  32


 TOTAL NUMBER OF POINT SOURCES/SINKS PRESENT IN THE FLOW MODEL =   240

 MAXIMUM STEPSIZE WHICH MEETS STABILITY CRITERION OF THE SINK & SOURCE TERM
 = 0.1000E+31(WHEN MIN. R.F.=1)  AT K=   0, I=   0, J=   0

 MAXIMUM STEPSIZE WHICH MEETS STABILITY CRITERION OF THE DISPERSION TERM
 = 0.5617E-02(WHEN MIN. R.F.=1)  AT K=   3, I=   2, J=  32
     1 CALLS TO GCG PACKAGE FOR TRANSPORT TIME STEP   7 IN FLOW TIME STEP  17 STRESS PERIOD   2
    16 TOTAL ITERATIONS
 
 SOLVING FOR HEAD 
 FLOW MODEL IS TRANSIENT
 FLOW MODEL CONTAINS CONSTANT-HEAD CELLS


 MAXIMUM STEPSIZE DURING WHICH ANY PARTICLE CANNOT MOVE MORE THAN ONE CELL
 = 0.1190    (WHEN MIN. R.F.=1)  AT K=   3, I=   2, J=  33

 MAXIMUM STEPSIZE WHICH MEETS STABILITY CRITERION OF THE ADVECTION TERM
 (FOR PURE FINITE-DIFFERENCE OPTION, MIXELM=0) 
 = 0.8154E-01(WHEN MIN. R.F.=1)  AT K=   3, I=   2, J=  32


 TOTAL NUMBER OF POINT SOURCES/SINKS PRESENT IN THE FLOW MODEL =   240

 MAXIMUM STEPSIZE WHICH MEETS STABILITY CRITERION OF THE SINK & SOURCE TERM
 = 0.1000E+31(WHEN MIN. R.F.=1)  AT K=   0, I=   0, J=   0

 MAXIMUM STEPSIZE WHICH MEETS STABILITY CRITERION OF THE DISPERSION TERM
 = 0.5617E-02(WHEN MIN. R.F.=1)  AT K=   3, I=   2, J=  32
     1 CALLS TO GCG PACKAGE FOR TRANSPORT TIME STEP   8 IN FLOW TIME STEP  17 STRESS PERIOD   2
    16 TOTAL ITERATIONS
 
 SOLVING FOR HEAD 
 FLOW MODEL IS TRANSIENT
 FLOW MODEL CONTAINS CONSTANT-HEAD CELLS


 MAXIMUM STEPSIZE DURING WHICH ANY PARTICLE CANNOT MOVE MORE THAN ONE CELL
 = 0.1190    (WHEN MIN. R.F.=1)  AT K=   3, I=   2, J=  33

 MAXIMUM STEPSIZE WHICH MEETS STABILITY CRITERION OF THE ADVECTION TERM
 (FOR PURE FINITE-DIFFERENCE OPTION, MIXELM=0) 
 = 0.8154E-01(WHEN MIN. R.F.=1)  AT K=   3, I=   2, J=  32


 TOTAL NUMBER OF POINT SOURCES/SINKS PRESENT IN THE FLOW MODEL =   240

 MAXIMUM STEPSIZE WHICH MEETS STABILITY CRITERION OF THE SINK & SOURCE TERM
 = 0.1000E+31(WHEN MIN. R.F.=1)  AT K=   0, I=   0, J=   0

 MAXIMUM STEPSIZE WHICH MEETS STABILITY CRITERION OF THE DISPERSION TERM
 = 0.5617E-02(WHEN MIN. R.F.=1)  AT K=   3, I=   2, J=  32
     1 CALLS TO GCG PACKAGE FOR TRANSPORT TIME STEP   9 IN FLOW TIME STEP  17 STRESS PERIOD   2
    16 TOTAL ITERATIONS
 
 SOLVING FOR HEAD 
 FLOW MODEL IS TRANSIENT
 FLOW MODEL CONTAINS CONSTANT-HEAD CELLS


 MAXIMUM STEPSIZE DURING WHICH ANY PARTICLE CANNOT MOVE MORE THAN ONE CELL
 = 0.1190    (WHEN MIN. R.F.=1)  AT K=   3, I=   2, J=  33

 MAXIMUM STEPSIZE WHICH MEETS STABILITY CRITERION OF THE ADVECTION TERM
 (FOR PURE FINITE-DIFFERENCE OPTION, MIXELM=0) 
 = 0.8154E-01(WHEN MIN. R.F.=1)  AT K=   3, I=   2, J=  32


 TOTAL NUMBER OF POINT SOURCES/SINKS PRESENT IN THE FLOW MODEL =   240

 MAXIMUM STEPSIZE WHICH MEETS STABILITY CRITERION OF THE SINK & SOURCE TERM
 = 0.1000E+31(WHEN MIN. R.F.=1)  AT K=   0, I=   0, J=   0

 MAXIMUM STEPSIZE WHICH MEETS STABILITY CRITERION OF THE DISPERSION TERM
 = 0.5617E-02(WHEN MIN. R.F.=1)  AT K=   3, I=   2, J=  32
     1 CALLS TO GCG PACKAGE FOR TRANSPORT TIME STEP  10 IN FLOW TIME STEP  17 STRESS PERIOD   2
    16 TOTAL ITERATIONS



 >>>>>>>>>>>>>>>>>>>>>>>>>>>>>>>>>>>>>>>>>>>>>>>>>>>>>>>FOR COMPONENT NO. 01<<<<<<<<<<<<<<<<<<<<<<<<<<<<<<<<<<<<<<<<<<<<<<<<<<<<<<<


                                            -------------------------------------------
                                                      TRANSPORT STEP NO.   10
                                            -------------------------------------------

 TOTAL ELAPSED TIME SINCE BEGINNING OF SIMULATION =   17.89253    D   
 .....................................................................

                     CUMULATIVE MASS BUDGETS AT END OF TRANSPORT STEP   10, TIME STEP   17, STRESS PERIOD    2
                     ------------------------------------------------------------------------------------------

                                                             IN                           OUT
                                                      ----------------             ----------------
                               CONSTANT CONCENTRATION:    4531.233                   -1341.908    
                                        CONSTANT HEAD:    0.000000                    0.000000    
                               MASS STOR (FLOW MODEL):   0.1195904E-01              -0.2878067E-02
                                MASS STORAGE (SOLUTE):   0.5620034E-06               -3189.335    
                            ---------------------------------------------------------------------------
                                              [TOTAL]:    4531.245     KG            -4531.246     KG  

                                                          NET (IN - OUT):  -0.9695344E-03
                                                   DISCREPANCY (PERCENT):  -0.2139664E-04
 
 SOLVING FOR HEAD 
 FLOW MODEL IS TRANSIENT
 FLOW MODEL CONTAINS CONSTANT-HEAD CELLS


 MAXIMUM STEPSIZE DURING WHICH ANY PARTICLE CANNOT MOVE MORE THAN ONE CELL
 = 0.1190    (WHEN MIN. R.F.=1)  AT K=   3, I=   2, J=  33

 MAXIMUM STEPSIZE WHICH MEETS STABILITY CRITERION OF THE ADVECTION TERM
 (FOR PURE FINITE-DIFFERENCE OPTION, MIXELM=0) 
 = 0.8154E-01(WHEN MIN. R.F.=1)  AT K=   3, I=   2, J=  32


 TOTAL NUMBER OF POINT SOURCES/SINKS PRESENT IN THE FLOW MODEL =   240

 MAXIMUM STEPSIZE WHICH MEETS STABILITY CRITERION OF THE SINK & SOURCE TERM
 = 0.1000E+31(WHEN MIN. R.F.=1)  AT K=   0, I=   0, J=   0

 MAXIMUM STEPSIZE WHICH MEETS STABILITY CRITERION OF THE DISPERSION TERM
 = 0.5617E-02(WHEN MIN. R.F.=1)  AT K=   3, I=   2, J=  32
     1 CALLS TO GCG PACKAGE FOR TRANSPORT TIME STEP  11 IN FLOW TIME STEP  17 STRESS PERIOD   2
    16 TOTAL ITERATIONS
 
 SOLVING FOR HEAD 
 FLOW MODEL IS TRANSIENT
 FLOW MODEL CONTAINS CONSTANT-HEAD CELLS


 MAXIMUM STEPSIZE DURING WHICH ANY PARTICLE CANNOT MOVE MORE THAN ONE CELL
 = 0.1190    (WHEN MIN. R.F.=1)  AT K=   3, I=   2, J=  33

 MAXIMUM STEPSIZE WHICH MEETS STABILITY CRITERION OF THE ADVECTION TERM
 (FOR PURE FINITE-DIFFERENCE OPTION, MIXELM=0) 
 = 0.8154E-01(WHEN MIN. R.F.=1)  AT K=   3, I=   2, J=  32


 TOTAL NUMBER OF POINT SOURCES/SINKS PRESENT IN THE FLOW MODEL =   240

 MAXIMUM STEPSIZE WHICH MEETS STABILITY CRITERION OF THE SINK & SOURCE TERM
 = 0.1000E+31(WHEN MIN. R.F.=1)  AT K=   0, I=   0, J=   0

 MAXIMUM STEPSIZE WHICH MEETS STABILITY CRITERION OF THE DISPERSION TERM
 = 0.5617E-02(WHEN MIN. R.F.=1)  AT K=   3, I=   2, J=  32
     1 CALLS TO GCG PACKAGE FOR TRANSPORT TIME STEP  12 IN FLOW TIME STEP  17 STRESS PERIOD   2
     8 TOTAL ITERATIONS
  MAXIMUM CONCENTRATION CHANGES FOR EACH ITERATION:
  MAX. CHANGE LAYER,ROW,COL MAX. CHANGE LAYER,ROW,COL MAX. CHANGE LAYER,ROW,COL MAX. CHANGE LAYER,ROW,COL MAX. CHANGE LAYER,ROW,COL
 ------------------------------------------------------------------------------------------------------------------------------------
   0.4737E-03 ( 13,  3, 46)  0.7492E-04 (  6,  2, 60)  0.9461E-05 (  5,  2, 57)  0.5426E-05 (  3,  2, 33)  0.2321E-05 (  4,  2, 33)
   0.8567E-06 (  3,  2, 33)  0.2202E-06 (  2,  2, 33)  0.7784E-07 (  3,  2, 33)


                                          ================================================
                                                         FROM TIME =   18.000     TO    19.000    

 
 SOLVING FOR HEAD 
 FLOW MODEL IS TRANSIENT
 FLOW MODEL CONTAINS CONSTANT-HEAD CELLS


 MAXIMUM STEPSIZE DURING WHICH ANY PARTICLE CANNOT MOVE MORE THAN ONE CELL
 = 0.1190    (WHEN MIN. R.F.=1)  AT K=   3, I=   2, J=  33

 MAXIMUM STEPSIZE WHICH MEETS STABILITY CRITERION OF THE ADVECTION TERM
 (FOR PURE FINITE-DIFFERENCE OPTION, MIXELM=0) 
 = 0.8154E-01(WHEN MIN. R.F.=1)  AT K=   3, I=   2, J=  32


 TOTAL NUMBER OF POINT SOURCES/SINKS PRESENT IN THE FLOW MODEL =   240

 MAXIMUM STEPSIZE WHICH MEETS STABILITY CRITERION OF THE SINK & SOURCE TERM
 = 0.1000E+31(WHEN MIN. R.F.=1)  AT K=   0, I=   0, J=   0

 MAXIMUM STEPSIZE WHICH MEETS STABILITY CRITERION OF THE DISPERSION TERM
 = 0.5617E-02(WHEN MIN. R.F.=1)  AT K=   3, I=   2, J=  32


     1 CALLS TO GCG PACKAGE FOR TRANSPORT TIME STEP   1 IN FLOW TIME STEP  18 STRESS PERIOD   2
    16 TOTAL ITERATIONS

 NO OUTPUT CONTROL FOR STRESS PERIOD    2   TIME STEP  18
 
 SOLVING FOR HEAD 
 FLOW MODEL IS TRANSIENT
 FLOW MODEL CONTAINS CONSTANT-HEAD CELLS


 MAXIMUM STEPSIZE DURING WHICH ANY PARTICLE CANNOT MOVE MORE THAN ONE CELL
 = 0.1190    (WHEN MIN. R.F.=1)  AT K=   3, I=   2, J=  33

 MAXIMUM STEPSIZE WHICH MEETS STABILITY CRITERION OF THE ADVECTION TERM
 (FOR PURE FINITE-DIFFERENCE OPTION, MIXELM=0) 
 = 0.8154E-01(WHEN MIN. R.F.=1)  AT K=   3, I=   2, J=  32


 TOTAL NUMBER OF POINT SOURCES/SINKS PRESENT IN THE FLOW MODEL =   240

 MAXIMUM STEPSIZE WHICH MEETS STABILITY CRITERION OF THE SINK & SOURCE TERM
 = 0.1000E+31(WHEN MIN. R.F.=1)  AT K=   0, I=   0, J=   0

 MAXIMUM STEPSIZE WHICH MEETS STABILITY CRITERION OF THE DISPERSION TERM
 = 0.5617E-02(WHEN MIN. R.F.=1)  AT K=   3, I=   2, J=  32
     1 CALLS TO GCG PACKAGE FOR TRANSPORT TIME STEP   2 IN FLOW TIME STEP  18 STRESS PERIOD   2
    16 TOTAL ITERATIONS
 
 SOLVING FOR HEAD 
 FLOW MODEL IS TRANSIENT
 FLOW MODEL CONTAINS CONSTANT-HEAD CELLS


 MAXIMUM STEPSIZE DURING WHICH ANY PARTICLE CANNOT MOVE MORE THAN ONE CELL
 = 0.1190    (WHEN MIN. R.F.=1)  AT K=   3, I=   2, J=  33

 MAXIMUM STEPSIZE WHICH MEETS STABILITY CRITERION OF THE ADVECTION TERM
 (FOR PURE FINITE-DIFFERENCE OPTION, MIXELM=0) 
 = 0.8154E-01(WHEN MIN. R.F.=1)  AT K=   3, I=   2, J=  32


 TOTAL NUMBER OF POINT SOURCES/SINKS PRESENT IN THE FLOW MODEL =   240

 MAXIMUM STEPSIZE WHICH MEETS STABILITY CRITERION OF THE SINK & SOURCE TERM
 = 0.1000E+31(WHEN MIN. R.F.=1)  AT K=   0, I=   0, J=   0

 MAXIMUM STEPSIZE WHICH MEETS STABILITY CRITERION OF THE DISPERSION TERM
 = 0.5617E-02(WHEN MIN. R.F.=1)  AT K=   3, I=   2, J=  32
     1 CALLS TO GCG PACKAGE FOR TRANSPORT TIME STEP   3 IN FLOW TIME STEP  18 STRESS PERIOD   2
    16 TOTAL ITERATIONS
 
 SOLVING FOR HEAD 
 FLOW MODEL IS TRANSIENT
 FLOW MODEL CONTAINS CONSTANT-HEAD CELLS


 MAXIMUM STEPSIZE DURING WHICH ANY PARTICLE CANNOT MOVE MORE THAN ONE CELL
 = 0.1190    (WHEN MIN. R.F.=1)  AT K=   3, I=   2, J=  33

 MAXIMUM STEPSIZE WHICH MEETS STABILITY CRITERION OF THE ADVECTION TERM
 (FOR PURE FINITE-DIFFERENCE OPTION, MIXELM=0) 
 = 0.8154E-01(WHEN MIN. R.F.=1)  AT K=   3, I=   2, J=  32


 TOTAL NUMBER OF POINT SOURCES/SINKS PRESENT IN THE FLOW MODEL =   240

 MAXIMUM STEPSIZE WHICH MEETS STABILITY CRITERION OF THE SINK & SOURCE TERM
 = 0.1000E+31(WHEN MIN. R.F.=1)  AT K=   0, I=   0, J=   0

 MAXIMUM STEPSIZE WHICH MEETS STABILITY CRITERION OF THE DISPERSION TERM
 = 0.5617E-02(WHEN MIN. R.F.=1)  AT K=   3, I=   2, J=  32
     1 CALLS TO GCG PACKAGE FOR TRANSPORT TIME STEP   4 IN FLOW TIME STEP  18 STRESS PERIOD   2
    16 TOTAL ITERATIONS
 
 SOLVING FOR HEAD 
 FLOW MODEL IS TRANSIENT
 FLOW MODEL CONTAINS CONSTANT-HEAD CELLS


 MAXIMUM STEPSIZE DURING WHICH ANY PARTICLE CANNOT MOVE MORE THAN ONE CELL
 = 0.1190    (WHEN MIN. R.F.=1)  AT K=   3, I=   2, J=  33

 MAXIMUM STEPSIZE WHICH MEETS STABILITY CRITERION OF THE ADVECTION TERM
 (FOR PURE FINITE-DIFFERENCE OPTION, MIXELM=0) 
 = 0.8154E-01(WHEN MIN. R.F.=1)  AT K=   3, I=   2, J=  32


 TOTAL NUMBER OF POINT SOURCES/SINKS PRESENT IN THE FLOW MODEL =   240

 MAXIMUM STEPSIZE WHICH MEETS STABILITY CRITERION OF THE SINK & SOURCE TERM
 = 0.1000E+31(WHEN MIN. R.F.=1)  AT K=   0, I=   0, J=   0

 MAXIMUM STEPSIZE WHICH MEETS STABILITY CRITERION OF THE DISPERSION TERM
 = 0.5617E-02(WHEN MIN. R.F.=1)  AT K=   3, I=   2, J=  32
     1 CALLS TO GCG PACKAGE FOR TRANSPORT TIME STEP   5 IN FLOW TIME STEP  18 STRESS PERIOD   2
    16 TOTAL ITERATIONS
 
 SOLVING FOR HEAD 
 FLOW MODEL IS TRANSIENT
 FLOW MODEL CONTAINS CONSTANT-HEAD CELLS


 MAXIMUM STEPSIZE DURING WHICH ANY PARTICLE CANNOT MOVE MORE THAN ONE CELL
 = 0.1190    (WHEN MIN. R.F.=1)  AT K=   3, I=   2, J=  33

 MAXIMUM STEPSIZE WHICH MEETS STABILITY CRITERION OF THE ADVECTION TERM
 (FOR PURE FINITE-DIFFERENCE OPTION, MIXELM=0) 
 = 0.8153E-01(WHEN MIN. R.F.=1)  AT K=   3, I=   2, J=  32


 TOTAL NUMBER OF POINT SOURCES/SINKS PRESENT IN THE FLOW MODEL =   240

 MAXIMUM STEPSIZE WHICH MEETS STABILITY CRITERION OF THE SINK & SOURCE TERM
 = 0.1000E+31(WHEN MIN. R.F.=1)  AT K=   0, I=   0, J=   0

 MAXIMUM STEPSIZE WHICH MEETS STABILITY CRITERION OF THE DISPERSION TERM
 = 0.5617E-02(WHEN MIN. R.F.=1)  AT K=   3, I=   2, J=  32
     1 CALLS TO GCG PACKAGE FOR TRANSPORT TIME STEP   6 IN FLOW TIME STEP  18 STRESS PERIOD   2
    16 TOTAL ITERATIONS
 
 SOLVING FOR HEAD 
 FLOW MODEL IS TRANSIENT
 FLOW MODEL CONTAINS CONSTANT-HEAD CELLS


 MAXIMUM STEPSIZE DURING WHICH ANY PARTICLE CANNOT MOVE MORE THAN ONE CELL
 = 0.1190    (WHEN MIN. R.F.=1)  AT K=   3, I=   2, J=  33

 MAXIMUM STEPSIZE WHICH MEETS STABILITY CRITERION OF THE ADVECTION TERM
 (FOR PURE FINITE-DIFFERENCE OPTION, MIXELM=0) 
 = 0.8153E-01(WHEN MIN. R.F.=1)  AT K=   3, I=   2, J=  32


 TOTAL NUMBER OF POINT SOURCES/SINKS PRESENT IN THE FLOW MODEL =   240

 MAXIMUM STEPSIZE WHICH MEETS STABILITY CRITERION OF THE SINK & SOURCE TERM
 = 0.1000E+31(WHEN MIN. R.F.=1)  AT K=   0, I=   0, J=   0

 MAXIMUM STEPSIZE WHICH MEETS STABILITY CRITERION OF THE DISPERSION TERM
 = 0.5617E-02(WHEN MIN. R.F.=1)  AT K=   3, I=   2, J=  32
     1 CALLS TO GCG PACKAGE FOR TRANSPORT TIME STEP   7 IN FLOW TIME STEP  18 STRESS PERIOD   2
    16 TOTAL ITERATIONS
 
 SOLVING FOR HEAD 
 FLOW MODEL IS TRANSIENT
 FLOW MODEL CONTAINS CONSTANT-HEAD CELLS


 MAXIMUM STEPSIZE DURING WHICH ANY PARTICLE CANNOT MOVE MORE THAN ONE CELL
 = 0.1190    (WHEN MIN. R.F.=1)  AT K=   3, I=   2, J=  33

 MAXIMUM STEPSIZE WHICH MEETS STABILITY CRITERION OF THE ADVECTION TERM
 (FOR PURE FINITE-DIFFERENCE OPTION, MIXELM=0) 
 = 0.8153E-01(WHEN MIN. R.F.=1)  AT K=   3, I=   2, J=  32


 TOTAL NUMBER OF POINT SOURCES/SINKS PRESENT IN THE FLOW MODEL =   240

 MAXIMUM STEPSIZE WHICH MEETS STABILITY CRITERION OF THE SINK & SOURCE TERM
 = 0.1000E+31(WHEN MIN. R.F.=1)  AT K=   0, I=   0, J=   0

 MAXIMUM STEPSIZE WHICH MEETS STABILITY CRITERION OF THE DISPERSION TERM
 = 0.5616E-02(WHEN MIN. R.F.=1)  AT K=   3, I=   2, J=  32
     1 CALLS TO GCG PACKAGE FOR TRANSPORT TIME STEP   8 IN FLOW TIME STEP  18 STRESS PERIOD   2
    16 TOTAL ITERATIONS
 
 SOLVING FOR HEAD 
 FLOW MODEL IS TRANSIENT
 FLOW MODEL CONTAINS CONSTANT-HEAD CELLS


 MAXIMUM STEPSIZE DURING WHICH ANY PARTICLE CANNOT MOVE MORE THAN ONE CELL
 = 0.1190    (WHEN MIN. R.F.=1)  AT K=   3, I=   2, J=  33

 MAXIMUM STEPSIZE WHICH MEETS STABILITY CRITERION OF THE ADVECTION TERM
 (FOR PURE FINITE-DIFFERENCE OPTION, MIXELM=0) 
 = 0.8153E-01(WHEN MIN. R.F.=1)  AT K=   3, I=   2, J=  32


 TOTAL NUMBER OF POINT SOURCES/SINKS PRESENT IN THE FLOW MODEL =   240

 MAXIMUM STEPSIZE WHICH MEETS STABILITY CRITERION OF THE SINK & SOURCE TERM
 = 0.1000E+31(WHEN MIN. R.F.=1)  AT K=   0, I=   0, J=   0

 MAXIMUM STEPSIZE WHICH MEETS STABILITY CRITERION OF THE DISPERSION TERM
 = 0.5616E-02(WHEN MIN. R.F.=1)  AT K=   3, I=   2, J=  32
     1 CALLS TO GCG PACKAGE FOR TRANSPORT TIME STEP   9 IN FLOW TIME STEP  18 STRESS PERIOD   2
    16 TOTAL ITERATIONS
 
 SOLVING FOR HEAD 
 FLOW MODEL IS TRANSIENT
 FLOW MODEL CONTAINS CONSTANT-HEAD CELLS


 MAXIMUM STEPSIZE DURING WHICH ANY PARTICLE CANNOT MOVE MORE THAN ONE CELL
 = 0.1190    (WHEN MIN. R.F.=1)  AT K=   3, I=   2, J=  33

 MAXIMUM STEPSIZE WHICH MEETS STABILITY CRITERION OF THE ADVECTION TERM
 (FOR PURE FINITE-DIFFERENCE OPTION, MIXELM=0) 
 = 0.8153E-01(WHEN MIN. R.F.=1)  AT K=   3, I=   2, J=  32


 TOTAL NUMBER OF POINT SOURCES/SINKS PRESENT IN THE FLOW MODEL =   240

 MAXIMUM STEPSIZE WHICH MEETS STABILITY CRITERION OF THE SINK & SOURCE TERM
 = 0.1000E+31(WHEN MIN. R.F.=1)  AT K=   0, I=   0, J=   0

 MAXIMUM STEPSIZE WHICH MEETS STABILITY CRITERION OF THE DISPERSION TERM
 = 0.5616E-02(WHEN MIN. R.F.=1)  AT K=   3, I=   2, J=  32
     1 CALLS TO GCG PACKAGE FOR TRANSPORT TIME STEP  10 IN FLOW TIME STEP  18 STRESS PERIOD   2
    16 TOTAL ITERATIONS



 >>>>>>>>>>>>>>>>>>>>>>>>>>>>>>>>>>>>>>>>>>>>>>>>>>>>>>>FOR COMPONENT NO. 01<<<<<<<<<<<<<<<<<<<<<<<<<<<<<<<<<<<<<<<<<<<<<<<<<<<<<<<


                                            -------------------------------------------
                                                      TRANSPORT STEP NO.   10
                                            -------------------------------------------

 TOTAL ELAPSED TIME SINCE BEGINNING OF SIMULATION =   18.89245    D   
 .....................................................................

                     CUMULATIVE MASS BUDGETS AT END OF TRANSPORT STEP   10, TIME STEP   18, STRESS PERIOD    2
                     ------------------------------------------------------------------------------------------

                                                             IN                           OUT
                                                      ----------------             ----------------
                               CONSTANT CONCENTRATION:    4687.573                   -1430.527    
                                        CONSTANT HEAD:    0.000000                    0.000000    
                               MASS STOR (FLOW MODEL):   0.1197487E-01              -0.2910312E-02
                                MASS STORAGE (SOLUTE):   0.5620034E-06               -3257.057    
                            ---------------------------------------------------------------------------
                                              [TOTAL]:    4687.585     KG            -4687.586     KG  

                                                          NET (IN - OUT):  -0.1056098E-02
                                                   DISCREPANCY (PERCENT):  -0.2252967E-04
 
 SOLVING FOR HEAD 
 FLOW MODEL IS TRANSIENT
 FLOW MODEL CONTAINS CONSTANT-HEAD CELLS


 MAXIMUM STEPSIZE DURING WHICH ANY PARTICLE CANNOT MOVE MORE THAN ONE CELL
 = 0.1190    (WHEN MIN. R.F.=1)  AT K=   3, I=   2, J=  33

 MAXIMUM STEPSIZE WHICH MEETS STABILITY CRITERION OF THE ADVECTION TERM
 (FOR PURE FINITE-DIFFERENCE OPTION, MIXELM=0) 
 = 0.8153E-01(WHEN MIN. R.F.=1)  AT K=   3, I=   2, J=  32


 TOTAL NUMBER OF POINT SOURCES/SINKS PRESENT IN THE FLOW MODEL =   240

 MAXIMUM STEPSIZE WHICH MEETS STABILITY CRITERION OF THE SINK & SOURCE TERM
 = 0.1000E+31(WHEN MIN. R.F.=1)  AT K=   0, I=   0, J=   0

 MAXIMUM STEPSIZE WHICH MEETS STABILITY CRITERION OF THE DISPERSION TERM
 = 0.5616E-02(WHEN MIN. R.F.=1)  AT K=   3, I=   2, J=  32
     1 CALLS TO GCG PACKAGE FOR TRANSPORT TIME STEP  11 IN FLOW TIME STEP  18 STRESS PERIOD   2
    16 TOTAL ITERATIONS
 
 SOLVING FOR HEAD 
 FLOW MODEL IS TRANSIENT
 FLOW MODEL CONTAINS CONSTANT-HEAD CELLS


 MAXIMUM STEPSIZE DURING WHICH ANY PARTICLE CANNOT MOVE MORE THAN ONE CELL
 = 0.1190    (WHEN MIN. R.F.=1)  AT K=   3, I=   2, J=  33

 MAXIMUM STEPSIZE WHICH MEETS STABILITY CRITERION OF THE ADVECTION TERM
 (FOR PURE FINITE-DIFFERENCE OPTION, MIXELM=0) 
 = 0.8153E-01(WHEN MIN. R.F.=1)  AT K=   3, I=   2, J=  32


 TOTAL NUMBER OF POINT SOURCES/SINKS PRESENT IN THE FLOW MODEL =   240

 MAXIMUM STEPSIZE WHICH MEETS STABILITY CRITERION OF THE SINK & SOURCE TERM
 = 0.1000E+31(WHEN MIN. R.F.=1)  AT K=   0, I=   0, J=   0

 MAXIMUM STEPSIZE WHICH MEETS STABILITY CRITERION OF THE DISPERSION TERM
 = 0.5616E-02(WHEN MIN. R.F.=1)  AT K=   3, I=   2, J=  32
     1 CALLS TO GCG PACKAGE FOR TRANSPORT TIME STEP  12 IN FLOW TIME STEP  18 STRESS PERIOD   2
     8 TOTAL ITERATIONS
  MAXIMUM CONCENTRATION CHANGES FOR EACH ITERATION:
  MAX. CHANGE LAYER,ROW,COL MAX. CHANGE LAYER,ROW,COL MAX. CHANGE LAYER,ROW,COL MAX. CHANGE LAYER,ROW,COL MAX. CHANGE LAYER,ROW,COL
 ------------------------------------------------------------------------------------------------------------------------------------
   0.4446E-03 ( 13,  3, 46)  0.7026E-04 (  6,  2, 60)  0.8959E-05 (  5,  2, 57)  0.4916E-05 (  3,  2, 33)  0.2111E-05 (  4,  2, 33)
   0.7838E-06 (  3,  2, 33)  0.2018E-06 (  2,  2, 33)  0.7162E-07 (  3,  2, 33)


                                          ================================================
                                                         FROM TIME =   19.000     TO    20.000    

 
 SOLVING FOR HEAD 
 FLOW MODEL IS TRANSIENT
 FLOW MODEL CONTAINS CONSTANT-HEAD CELLS


 MAXIMUM STEPSIZE DURING WHICH ANY PARTICLE CANNOT MOVE MORE THAN ONE CELL
 = 0.1190    (WHEN MIN. R.F.=1)  AT K=   3, I=   2, J=  33

 MAXIMUM STEPSIZE WHICH MEETS STABILITY CRITERION OF THE ADVECTION TERM
 (FOR PURE FINITE-DIFFERENCE OPTION, MIXELM=0) 
 = 0.8153E-01(WHEN MIN. R.F.=1)  AT K=   3, I=   2, J=  32


 TOTAL NUMBER OF POINT SOURCES/SINKS PRESENT IN THE FLOW MODEL =   240

 MAXIMUM STEPSIZE WHICH MEETS STABILITY CRITERION OF THE SINK & SOURCE TERM
 = 0.1000E+31(WHEN MIN. R.F.=1)  AT K=   0, I=   0, J=   0

 MAXIMUM STEPSIZE WHICH MEETS STABILITY CRITERION OF THE DISPERSION TERM
 = 0.5616E-02(WHEN MIN. R.F.=1)  AT K=   3, I=   2, J=  32


     1 CALLS TO GCG PACKAGE FOR TRANSPORT TIME STEP   1 IN FLOW TIME STEP  19 STRESS PERIOD   2
    16 TOTAL ITERATIONS

 NO OUTPUT CONTROL FOR STRESS PERIOD    2   TIME STEP  19
 
 SOLVING FOR HEAD 
 FLOW MODEL IS TRANSIENT
 FLOW MODEL CONTAINS CONSTANT-HEAD CELLS


 MAXIMUM STEPSIZE DURING WHICH ANY PARTICLE CANNOT MOVE MORE THAN ONE CELL
 = 0.1190    (WHEN MIN. R.F.=1)  AT K=   3, I=   2, J=  33

 MAXIMUM STEPSIZE WHICH MEETS STABILITY CRITERION OF THE ADVECTION TERM
 (FOR PURE FINITE-DIFFERENCE OPTION, MIXELM=0) 
 = 0.8153E-01(WHEN MIN. R.F.=1)  AT K=   3, I=   2, J=  32


 TOTAL NUMBER OF POINT SOURCES/SINKS PRESENT IN THE FLOW MODEL =   240

 MAXIMUM STEPSIZE WHICH MEETS STABILITY CRITERION OF THE SINK & SOURCE TERM
 = 0.1000E+31(WHEN MIN. R.F.=1)  AT K=   0, I=   0, J=   0

 MAXIMUM STEPSIZE WHICH MEETS STABILITY CRITERION OF THE DISPERSION TERM
 = 0.5616E-02(WHEN MIN. R.F.=1)  AT K=   3, I=   2, J=  32
     1 CALLS TO GCG PACKAGE FOR TRANSPORT TIME STEP   2 IN FLOW TIME STEP  19 STRESS PERIOD   2
    16 TOTAL ITERATIONS
 
 SOLVING FOR HEAD 
 FLOW MODEL IS TRANSIENT
 FLOW MODEL CONTAINS CONSTANT-HEAD CELLS


 MAXIMUM STEPSIZE DURING WHICH ANY PARTICLE CANNOT MOVE MORE THAN ONE CELL
 = 0.1190    (WHEN MIN. R.F.=1)  AT K=   3, I=   2, J=  33

 MAXIMUM STEPSIZE WHICH MEETS STABILITY CRITERION OF THE ADVECTION TERM
 (FOR PURE FINITE-DIFFERENCE OPTION, MIXELM=0) 
 = 0.8153E-01(WHEN MIN. R.F.=1)  AT K=   3, I=   2, J=  32


 TOTAL NUMBER OF POINT SOURCES/SINKS PRESENT IN THE FLOW MODEL =   240

 MAXIMUM STEPSIZE WHICH MEETS STABILITY CRITERION OF THE SINK & SOURCE TERM
 = 0.1000E+31(WHEN MIN. R.F.=1)  AT K=   0, I=   0, J=   0

 MAXIMUM STEPSIZE WHICH MEETS STABILITY CRITERION OF THE DISPERSION TERM
 = 0.5616E-02(WHEN MIN. R.F.=1)  AT K=   3, I=   2, J=  32
     1 CALLS TO GCG PACKAGE FOR TRANSPORT TIME STEP   3 IN FLOW TIME STEP  19 STRESS PERIOD   2
    16 TOTAL ITERATIONS
 
 SOLVING FOR HEAD 
 FLOW MODEL IS TRANSIENT
 FLOW MODEL CONTAINS CONSTANT-HEAD CELLS


 MAXIMUM STEPSIZE DURING WHICH ANY PARTICLE CANNOT MOVE MORE THAN ONE CELL
 = 0.1190    (WHEN MIN. R.F.=1)  AT K=   3, I=   2, J=  33

 MAXIMUM STEPSIZE WHICH MEETS STABILITY CRITERION OF THE ADVECTION TERM
 (FOR PURE FINITE-DIFFERENCE OPTION, MIXELM=0) 
 = 0.8153E-01(WHEN MIN. R.F.=1)  AT K=   3, I=   2, J=  32


 TOTAL NUMBER OF POINT SOURCES/SINKS PRESENT IN THE FLOW MODEL =   240

 MAXIMUM STEPSIZE WHICH MEETS STABILITY CRITERION OF THE SINK & SOURCE TERM
 = 0.1000E+31(WHEN MIN. R.F.=1)  AT K=   0, I=   0, J=   0

 MAXIMUM STEPSIZE WHICH MEETS STABILITY CRITERION OF THE DISPERSION TERM
 = 0.5616E-02(WHEN MIN. R.F.=1)  AT K=   3, I=   2, J=  32
     1 CALLS TO GCG PACKAGE FOR TRANSPORT TIME STEP   4 IN FLOW TIME STEP  19 STRESS PERIOD   2
    16 TOTAL ITERATIONS
 
 SOLVING FOR HEAD 
 FLOW MODEL IS TRANSIENT
 FLOW MODEL CONTAINS CONSTANT-HEAD CELLS


 MAXIMUM STEPSIZE DURING WHICH ANY PARTICLE CANNOT MOVE MORE THAN ONE CELL
 = 0.1190    (WHEN MIN. R.F.=1)  AT K=   3, I=   2, J=  33

 MAXIMUM STEPSIZE WHICH MEETS STABILITY CRITERION OF THE ADVECTION TERM
 (FOR PURE FINITE-DIFFERENCE OPTION, MIXELM=0) 
 = 0.8153E-01(WHEN MIN. R.F.=1)  AT K=   3, I=   2, J=  32


 TOTAL NUMBER OF POINT SOURCES/SINKS PRESENT IN THE FLOW MODEL =   240

 MAXIMUM STEPSIZE WHICH MEETS STABILITY CRITERION OF THE SINK & SOURCE TERM
 = 0.1000E+31(WHEN MIN. R.F.=1)  AT K=   0, I=   0, J=   0

 MAXIMUM STEPSIZE WHICH MEETS STABILITY CRITERION OF THE DISPERSION TERM
 = 0.5616E-02(WHEN MIN. R.F.=1)  AT K=   3, I=   2, J=  32
     1 CALLS TO GCG PACKAGE FOR TRANSPORT TIME STEP   5 IN FLOW TIME STEP  19 STRESS PERIOD   2
    16 TOTAL ITERATIONS
 
 SOLVING FOR HEAD 
 FLOW MODEL IS TRANSIENT
 FLOW MODEL CONTAINS CONSTANT-HEAD CELLS


 MAXIMUM STEPSIZE DURING WHICH ANY PARTICLE CANNOT MOVE MORE THAN ONE CELL
 = 0.1190    (WHEN MIN. R.F.=1)  AT K=   3, I=   2, J=  33

 MAXIMUM STEPSIZE WHICH MEETS STABILITY CRITERION OF THE ADVECTION TERM
 (FOR PURE FINITE-DIFFERENCE OPTION, MIXELM=0) 
 = 0.8153E-01(WHEN MIN. R.F.=1)  AT K=   3, I=   2, J=  32


 TOTAL NUMBER OF POINT SOURCES/SINKS PRESENT IN THE FLOW MODEL =   240

 MAXIMUM STEPSIZE WHICH MEETS STABILITY CRITERION OF THE SINK & SOURCE TERM
 = 0.1000E+31(WHEN MIN. R.F.=1)  AT K=   0, I=   0, J=   0

 MAXIMUM STEPSIZE WHICH MEETS STABILITY CRITERION OF THE DISPERSION TERM
 = 0.5616E-02(WHEN MIN. R.F.=1)  AT K=   3, I=   2, J=  32
     1 CALLS TO GCG PACKAGE FOR TRANSPORT TIME STEP   6 IN FLOW TIME STEP  19 STRESS PERIOD   2
    16 TOTAL ITERATIONS
 
 SOLVING FOR HEAD 
 FLOW MODEL IS TRANSIENT
 FLOW MODEL CONTAINS CONSTANT-HEAD CELLS


 MAXIMUM STEPSIZE DURING WHICH ANY PARTICLE CANNOT MOVE MORE THAN ONE CELL
 = 0.1190    (WHEN MIN. R.F.=1)  AT K=   3, I=   2, J=  33

 MAXIMUM STEPSIZE WHICH MEETS STABILITY CRITERION OF THE ADVECTION TERM
 (FOR PURE FINITE-DIFFERENCE OPTION, MIXELM=0) 
 = 0.8153E-01(WHEN MIN. R.F.=1)  AT K=   3, I=   2, J=  32


 TOTAL NUMBER OF POINT SOURCES/SINKS PRESENT IN THE FLOW MODEL =   240

 MAXIMUM STEPSIZE WHICH MEETS STABILITY CRITERION OF THE SINK & SOURCE TERM
 = 0.1000E+31(WHEN MIN. R.F.=1)  AT K=   0, I=   0, J=   0

 MAXIMUM STEPSIZE WHICH MEETS STABILITY CRITERION OF THE DISPERSION TERM
 = 0.5616E-02(WHEN MIN. R.F.=1)  AT K=   3, I=   2, J=  32
     1 CALLS TO GCG PACKAGE FOR TRANSPORT TIME STEP   7 IN FLOW TIME STEP  19 STRESS PERIOD   2
    16 TOTAL ITERATIONS
 
 SOLVING FOR HEAD 
 FLOW MODEL IS TRANSIENT
 FLOW MODEL CONTAINS CONSTANT-HEAD CELLS


 MAXIMUM STEPSIZE DURING WHICH ANY PARTICLE CANNOT MOVE MORE THAN ONE CELL
 = 0.1190    (WHEN MIN. R.F.=1)  AT K=   3, I=   2, J=  33

 MAXIMUM STEPSIZE WHICH MEETS STABILITY CRITERION OF THE ADVECTION TERM
 (FOR PURE FINITE-DIFFERENCE OPTION, MIXELM=0) 
 = 0.8153E-01(WHEN MIN. R.F.=1)  AT K=   3, I=   2, J=  32


 TOTAL NUMBER OF POINT SOURCES/SINKS PRESENT IN THE FLOW MODEL =   240

 MAXIMUM STEPSIZE WHICH MEETS STABILITY CRITERION OF THE SINK & SOURCE TERM
 = 0.1000E+31(WHEN MIN. R.F.=1)  AT K=   0, I=   0, J=   0

 MAXIMUM STEPSIZE WHICH MEETS STABILITY CRITERION OF THE DISPERSION TERM
 = 0.5616E-02(WHEN MIN. R.F.=1)  AT K=   3, I=   2, J=  32
     1 CALLS TO GCG PACKAGE FOR TRANSPORT TIME STEP   8 IN FLOW TIME STEP  19 STRESS PERIOD   2
    16 TOTAL ITERATIONS
 
 SOLVING FOR HEAD 
 FLOW MODEL IS TRANSIENT
 FLOW MODEL CONTAINS CONSTANT-HEAD CELLS


 MAXIMUM STEPSIZE DURING WHICH ANY PARTICLE CANNOT MOVE MORE THAN ONE CELL
 = 0.1190    (WHEN MIN. R.F.=1)  AT K=   3, I=   2, J=  33

 MAXIMUM STEPSIZE WHICH MEETS STABILITY CRITERION OF THE ADVECTION TERM
 (FOR PURE FINITE-DIFFERENCE OPTION, MIXELM=0) 
 = 0.8153E-01(WHEN MIN. R.F.=1)  AT K=   3, I=   2, J=  32


 TOTAL NUMBER OF POINT SOURCES/SINKS PRESENT IN THE FLOW MODEL =   240

 MAXIMUM STEPSIZE WHICH MEETS STABILITY CRITERION OF THE SINK & SOURCE TERM
 = 0.1000E+31(WHEN MIN. R.F.=1)  AT K=   0, I=   0, J=   0

 MAXIMUM STEPSIZE WHICH MEETS STABILITY CRITERION OF THE DISPERSION TERM
 = 0.5616E-02(WHEN MIN. R.F.=1)  AT K=   3, I=   2, J=  32
     1 CALLS TO GCG PACKAGE FOR TRANSPORT TIME STEP   9 IN FLOW TIME STEP  19 STRESS PERIOD   2
    16 TOTAL ITERATIONS
 
 SOLVING FOR HEAD 
 FLOW MODEL IS TRANSIENT
 FLOW MODEL CONTAINS CONSTANT-HEAD CELLS


 MAXIMUM STEPSIZE DURING WHICH ANY PARTICLE CANNOT MOVE MORE THAN ONE CELL
 = 0.1190    (WHEN MIN. R.F.=1)  AT K=   3, I=   2, J=  33

 MAXIMUM STEPSIZE WHICH MEETS STABILITY CRITERION OF THE ADVECTION TERM
 (FOR PURE FINITE-DIFFERENCE OPTION, MIXELM=0) 
 = 0.8153E-01(WHEN MIN. R.F.=1)  AT K=   3, I=   2, J=  32


 TOTAL NUMBER OF POINT SOURCES/SINKS PRESENT IN THE FLOW MODEL =   240

 MAXIMUM STEPSIZE WHICH MEETS STABILITY CRITERION OF THE SINK & SOURCE TERM
 = 0.1000E+31(WHEN MIN. R.F.=1)  AT K=   0, I=   0, J=   0

 MAXIMUM STEPSIZE WHICH MEETS STABILITY CRITERION OF THE DISPERSION TERM
 = 0.5616E-02(WHEN MIN. R.F.=1)  AT K=   3, I=   2, J=  32
     1 CALLS TO GCG PACKAGE FOR TRANSPORT TIME STEP  10 IN FLOW TIME STEP  19 STRESS PERIOD   2
    16 TOTAL ITERATIONS



 >>>>>>>>>>>>>>>>>>>>>>>>>>>>>>>>>>>>>>>>>>>>>>>>>>>>>>>FOR COMPONENT NO. 01<<<<<<<<<<<<<<<<<<<<<<<<<<<<<<<<<<<<<<<<<<<<<<<<<<<<<<<


                                            -------------------------------------------
                                                      TRANSPORT STEP NO.   10
                                            -------------------------------------------

 TOTAL ELAPSED TIME SINCE BEGINNING OF SIMULATION =   19.89238    D   
 .....................................................................

                     CUMULATIVE MASS BUDGETS AT END OF TRANSPORT STEP   10, TIME STEP   19, STRESS PERIOD    2
                     ------------------------------------------------------------------------------------------

                                                             IN                           OUT
                                                      ----------------             ----------------
                               CONSTANT CONCENTRATION:    4840.450                   -1519.442    
                                        CONSTANT HEAD:    0.000000                    0.000000    
                               MASS STOR (FLOW MODEL):   0.1199142E-01              -0.2939818E-02
                                MASS STORAGE (SOLUTE):   0.5620034E-06               -3321.018    
                            ---------------------------------------------------------------------------
                                              [TOTAL]:    4840.462     KG            -4840.463     KG  

                                                          NET (IN - OUT):  -0.1136160E-02
                                                   DISCREPANCY (PERCENT):  -0.2347214E-04
 
 SOLVING FOR HEAD 
 FLOW MODEL IS TRANSIENT
 FLOW MODEL CONTAINS CONSTANT-HEAD CELLS


 MAXIMUM STEPSIZE DURING WHICH ANY PARTICLE CANNOT MOVE MORE THAN ONE CELL
 = 0.1190    (WHEN MIN. R.F.=1)  AT K=   3, I=   2, J=  33

 MAXIMUM STEPSIZE WHICH MEETS STABILITY CRITERION OF THE ADVECTION TERM
 (FOR PURE FINITE-DIFFERENCE OPTION, MIXELM=0) 
 = 0.8153E-01(WHEN MIN. R.F.=1)  AT K=   3, I=   2, J=  32


 TOTAL NUMBER OF POINT SOURCES/SINKS PRESENT IN THE FLOW MODEL =   240

 MAXIMUM STEPSIZE WHICH MEETS STABILITY CRITERION OF THE SINK & SOURCE TERM
 = 0.1000E+31(WHEN MIN. R.F.=1)  AT K=   0, I=   0, J=   0

 MAXIMUM STEPSIZE WHICH MEETS STABILITY CRITERION OF THE DISPERSION TERM
 = 0.5616E-02(WHEN MIN. R.F.=1)  AT K=   3, I=   2, J=  32
     1 CALLS TO GCG PACKAGE FOR TRANSPORT TIME STEP  11 IN FLOW TIME STEP  19 STRESS PERIOD   2
    16 TOTAL ITERATIONS
 
 SOLVING FOR HEAD 
 FLOW MODEL IS TRANSIENT
 FLOW MODEL CONTAINS CONSTANT-HEAD CELLS


 MAXIMUM STEPSIZE DURING WHICH ANY PARTICLE CANNOT MOVE MORE THAN ONE CELL
 = 0.1190    (WHEN MIN. R.F.=1)  AT K=   3, I=   2, J=  33

 MAXIMUM STEPSIZE WHICH MEETS STABILITY CRITERION OF THE ADVECTION TERM
 (FOR PURE FINITE-DIFFERENCE OPTION, MIXELM=0) 
 = 0.8153E-01(WHEN MIN. R.F.=1)  AT K=   3, I=   2, J=  32


 TOTAL NUMBER OF POINT SOURCES/SINKS PRESENT IN THE FLOW MODEL =   240

 MAXIMUM STEPSIZE WHICH MEETS STABILITY CRITERION OF THE SINK & SOURCE TERM
 = 0.1000E+31(WHEN MIN. R.F.=1)  AT K=   0, I=   0, J=   0

 MAXIMUM STEPSIZE WHICH MEETS STABILITY CRITERION OF THE DISPERSION TERM
 = 0.5616E-02(WHEN MIN. R.F.=1)  AT K=   3, I=   2, J=  32
     1 CALLS TO GCG PACKAGE FOR TRANSPORT TIME STEP  12 IN FLOW TIME STEP  19 STRESS PERIOD   2
     8 TOTAL ITERATIONS
  MAXIMUM CONCENTRATION CHANGES FOR EACH ITERATION:
  MAX. CHANGE LAYER,ROW,COL MAX. CHANGE LAYER,ROW,COL MAX. CHANGE LAYER,ROW,COL MAX. CHANGE LAYER,ROW,COL MAX. CHANGE LAYER,ROW,COL
 ------------------------------------------------------------------------------------------------------------------------------------
   0.4147E-03 ( 13,  3, 46)  0.6601E-04 (  6,  2, 60)  0.8492E-05 (  5,  2, 57)  0.4471E-05 (  3,  2, 33)  0.1928E-05 (  4,  2, 33)
   0.7196E-06 (  3,  2, 33)  0.1857E-06 (  2,  2, 33)  0.6612E-07 (  3,  2, 33)


                                          ================================================
                                                         FROM TIME =   20.000     TO    21.000    

 
 SOLVING FOR HEAD 
 FLOW MODEL IS TRANSIENT
 FLOW MODEL CONTAINS CONSTANT-HEAD CELLS


 MAXIMUM STEPSIZE DURING WHICH ANY PARTICLE CANNOT MOVE MORE THAN ONE CELL
 = 0.1190    (WHEN MIN. R.F.=1)  AT K=   3, I=   2, J=  33

 MAXIMUM STEPSIZE WHICH MEETS STABILITY CRITERION OF THE ADVECTION TERM
 (FOR PURE FINITE-DIFFERENCE OPTION, MIXELM=0) 
 = 0.8153E-01(WHEN MIN. R.F.=1)  AT K=   3, I=   2, J=  32


 TOTAL NUMBER OF POINT SOURCES/SINKS PRESENT IN THE FLOW MODEL =   240

 MAXIMUM STEPSIZE WHICH MEETS STABILITY CRITERION OF THE SINK & SOURCE TERM
 = 0.1000E+31(WHEN MIN. R.F.=1)  AT K=   0, I=   0, J=   0

 MAXIMUM STEPSIZE WHICH MEETS STABILITY CRITERION OF THE DISPERSION TERM
 = 0.5616E-02(WHEN MIN. R.F.=1)  AT K=   3, I=   2, J=  32


     1 CALLS TO GCG PACKAGE FOR TRANSPORT TIME STEP   1 IN FLOW TIME STEP  20 STRESS PERIOD   2
    16 TOTAL ITERATIONS

 NO OUTPUT CONTROL FOR STRESS PERIOD    2   TIME STEP  20
 
 SOLVING FOR HEAD 
 FLOW MODEL IS TRANSIENT
 FLOW MODEL CONTAINS CONSTANT-HEAD CELLS


 MAXIMUM STEPSIZE DURING WHICH ANY PARTICLE CANNOT MOVE MORE THAN ONE CELL
 = 0.1190    (WHEN MIN. R.F.=1)  AT K=   3, I=   2, J=  33

 MAXIMUM STEPSIZE WHICH MEETS STABILITY CRITERION OF THE ADVECTION TERM
 (FOR PURE FINITE-DIFFERENCE OPTION, MIXELM=0) 
 = 0.8152E-01(WHEN MIN. R.F.=1)  AT K=   3, I=   2, J=  32


 TOTAL NUMBER OF POINT SOURCES/SINKS PRESENT IN THE FLOW MODEL =   240

 MAXIMUM STEPSIZE WHICH MEETS STABILITY CRITERION OF THE SINK & SOURCE TERM
 = 0.1000E+31(WHEN MIN. R.F.=1)  AT K=   0, I=   0, J=   0

 MAXIMUM STEPSIZE WHICH MEETS STABILITY CRITERION OF THE DISPERSION TERM
 = 0.5616E-02(WHEN MIN. R.F.=1)  AT K=   3, I=   2, J=  32
     1 CALLS TO GCG PACKAGE FOR TRANSPORT TIME STEP   2 IN FLOW TIME STEP  20 STRESS PERIOD   2
    16 TOTAL ITERATIONS
 
 SOLVING FOR HEAD 
 FLOW MODEL IS TRANSIENT
 FLOW MODEL CONTAINS CONSTANT-HEAD CELLS


 MAXIMUM STEPSIZE DURING WHICH ANY PARTICLE CANNOT MOVE MORE THAN ONE CELL
 = 0.1190    (WHEN MIN. R.F.=1)  AT K=   3, I=   2, J=  33

 MAXIMUM STEPSIZE WHICH MEETS STABILITY CRITERION OF THE ADVECTION TERM
 (FOR PURE FINITE-DIFFERENCE OPTION, MIXELM=0) 
 = 0.8152E-01(WHEN MIN. R.F.=1)  AT K=   3, I=   2, J=  32


 TOTAL NUMBER OF POINT SOURCES/SINKS PRESENT IN THE FLOW MODEL =   240

 MAXIMUM STEPSIZE WHICH MEETS STABILITY CRITERION OF THE SINK & SOURCE TERM
 = 0.1000E+31(WHEN MIN. R.F.=1)  AT K=   0, I=   0, J=   0

 MAXIMUM STEPSIZE WHICH MEETS STABILITY CRITERION OF THE DISPERSION TERM
 = 0.5616E-02(WHEN MIN. R.F.=1)  AT K=   3, I=   2, J=  32
     1 CALLS TO GCG PACKAGE FOR TRANSPORT TIME STEP   3 IN FLOW TIME STEP  20 STRESS PERIOD   2
    16 TOTAL ITERATIONS
 
 SOLVING FOR HEAD 
 FLOW MODEL IS TRANSIENT
 FLOW MODEL CONTAINS CONSTANT-HEAD CELLS


 MAXIMUM STEPSIZE DURING WHICH ANY PARTICLE CANNOT MOVE MORE THAN ONE CELL
 = 0.1190    (WHEN MIN. R.F.=1)  AT K=   3, I=   2, J=  33

 MAXIMUM STEPSIZE WHICH MEETS STABILITY CRITERION OF THE ADVECTION TERM
 (FOR PURE FINITE-DIFFERENCE OPTION, MIXELM=0) 
 = 0.8152E-01(WHEN MIN. R.F.=1)  AT K=   3, I=   2, J=  32


 TOTAL NUMBER OF POINT SOURCES/SINKS PRESENT IN THE FLOW MODEL =   240

 MAXIMUM STEPSIZE WHICH MEETS STABILITY CRITERION OF THE SINK & SOURCE TERM
 = 0.1000E+31(WHEN MIN. R.F.=1)  AT K=   0, I=   0, J=   0

 MAXIMUM STEPSIZE WHICH MEETS STABILITY CRITERION OF THE DISPERSION TERM
 = 0.5616E-02(WHEN MIN. R.F.=1)  AT K=   3, I=   2, J=  32
     1 CALLS TO GCG PACKAGE FOR TRANSPORT TIME STEP   4 IN FLOW TIME STEP  20 STRESS PERIOD   2
    16 TOTAL ITERATIONS
 
 SOLVING FOR HEAD 
 FLOW MODEL IS TRANSIENT
 FLOW MODEL CONTAINS CONSTANT-HEAD CELLS


 MAXIMUM STEPSIZE DURING WHICH ANY PARTICLE CANNOT MOVE MORE THAN ONE CELL
 = 0.1190    (WHEN MIN. R.F.=1)  AT K=   3, I=   2, J=  33

 MAXIMUM STEPSIZE WHICH MEETS STABILITY CRITERION OF THE ADVECTION TERM
 (FOR PURE FINITE-DIFFERENCE OPTION, MIXELM=0) 
 = 0.8152E-01(WHEN MIN. R.F.=1)  AT K=   3, I=   2, J=  32


 TOTAL NUMBER OF POINT SOURCES/SINKS PRESENT IN THE FLOW MODEL =   240

 MAXIMUM STEPSIZE WHICH MEETS STABILITY CRITERION OF THE SINK & SOURCE TERM
 = 0.1000E+31(WHEN MIN. R.F.=1)  AT K=   0, I=   0, J=   0

 MAXIMUM STEPSIZE WHICH MEETS STABILITY CRITERION OF THE DISPERSION TERM
 = 0.5616E-02(WHEN MIN. R.F.=1)  AT K=   3, I=   2, J=  32
     1 CALLS TO GCG PACKAGE FOR TRANSPORT TIME STEP   5 IN FLOW TIME STEP  20 STRESS PERIOD   2
    16 TOTAL ITERATIONS
 
 SOLVING FOR HEAD 
 FLOW MODEL IS TRANSIENT
 FLOW MODEL CONTAINS CONSTANT-HEAD CELLS


 MAXIMUM STEPSIZE DURING WHICH ANY PARTICLE CANNOT MOVE MORE THAN ONE CELL
 = 0.1190    (WHEN MIN. R.F.=1)  AT K=   3, I=   2, J=  33

 MAXIMUM STEPSIZE WHICH MEETS STABILITY CRITERION OF THE ADVECTION TERM
 (FOR PURE FINITE-DIFFERENCE OPTION, MIXELM=0) 
 = 0.8152E-01(WHEN MIN. R.F.=1)  AT K=   3, I=   2, J=  32


 TOTAL NUMBER OF POINT SOURCES/SINKS PRESENT IN THE FLOW MODEL =   240

 MAXIMUM STEPSIZE WHICH MEETS STABILITY CRITERION OF THE SINK & SOURCE TERM
 = 0.1000E+31(WHEN MIN. R.F.=1)  AT K=   0, I=   0, J=   0

 MAXIMUM STEPSIZE WHICH MEETS STABILITY CRITERION OF THE DISPERSION TERM
 = 0.5616E-02(WHEN MIN. R.F.=1)  AT K=   3, I=   2, J=  32
     1 CALLS TO GCG PACKAGE FOR TRANSPORT TIME STEP   6 IN FLOW TIME STEP  20 STRESS PERIOD   2
    16 TOTAL ITERATIONS
 
 SOLVING FOR HEAD 
 FLOW MODEL IS TRANSIENT
 FLOW MODEL CONTAINS CONSTANT-HEAD CELLS


 MAXIMUM STEPSIZE DURING WHICH ANY PARTICLE CANNOT MOVE MORE THAN ONE CELL
 = 0.1190    (WHEN MIN. R.F.=1)  AT K=   3, I=   2, J=  33

 MAXIMUM STEPSIZE WHICH MEETS STABILITY CRITERION OF THE ADVECTION TERM
 (FOR PURE FINITE-DIFFERENCE OPTION, MIXELM=0) 
 = 0.8152E-01(WHEN MIN. R.F.=1)  AT K=   3, I=   2, J=  32


 TOTAL NUMBER OF POINT SOURCES/SINKS PRESENT IN THE FLOW MODEL =   240

 MAXIMUM STEPSIZE WHICH MEETS STABILITY CRITERION OF THE SINK & SOURCE TERM
 = 0.1000E+31(WHEN MIN. R.F.=1)  AT K=   0, I=   0, J=   0

 MAXIMUM STEPSIZE WHICH MEETS STABILITY CRITERION OF THE DISPERSION TERM
 = 0.5616E-02(WHEN MIN. R.F.=1)  AT K=   3, I=   2, J=  32
     1 CALLS TO GCG PACKAGE FOR TRANSPORT TIME STEP   7 IN FLOW TIME STEP  20 STRESS PERIOD   2
    16 TOTAL ITERATIONS
 
 SOLVING FOR HEAD 
 FLOW MODEL IS TRANSIENT
 FLOW MODEL CONTAINS CONSTANT-HEAD CELLS


 MAXIMUM STEPSIZE DURING WHICH ANY PARTICLE CANNOT MOVE MORE THAN ONE CELL
 = 0.1190    (WHEN MIN. R.F.=1)  AT K=   3, I=   2, J=  33

 MAXIMUM STEPSIZE WHICH MEETS STABILITY CRITERION OF THE ADVECTION TERM
 (FOR PURE FINITE-DIFFERENCE OPTION, MIXELM=0) 
 = 0.8152E-01(WHEN MIN. R.F.=1)  AT K=   3, I=   2, J=  32


 TOTAL NUMBER OF POINT SOURCES/SINKS PRESENT IN THE FLOW MODEL =   240

 MAXIMUM STEPSIZE WHICH MEETS STABILITY CRITERION OF THE SINK & SOURCE TERM
 = 0.1000E+31(WHEN MIN. R.F.=1)  AT K=   0, I=   0, J=   0

 MAXIMUM STEPSIZE WHICH MEETS STABILITY CRITERION OF THE DISPERSION TERM
 = 0.5616E-02(WHEN MIN. R.F.=1)  AT K=   3, I=   2, J=  32
     1 CALLS TO GCG PACKAGE FOR TRANSPORT TIME STEP   8 IN FLOW TIME STEP  20 STRESS PERIOD   2
    16 TOTAL ITERATIONS
 
 SOLVING FOR HEAD 
 FLOW MODEL IS TRANSIENT
 FLOW MODEL CONTAINS CONSTANT-HEAD CELLS


 MAXIMUM STEPSIZE DURING WHICH ANY PARTICLE CANNOT MOVE MORE THAN ONE CELL
 = 0.1190    (WHEN MIN. R.F.=1)  AT K=   3, I=   2, J=  33

 MAXIMUM STEPSIZE WHICH MEETS STABILITY CRITERION OF THE ADVECTION TERM
 (FOR PURE FINITE-DIFFERENCE OPTION, MIXELM=0) 
 = 0.8152E-01(WHEN MIN. R.F.=1)  AT K=   3, I=   2, J=  32


 TOTAL NUMBER OF POINT SOURCES/SINKS PRESENT IN THE FLOW MODEL =   240

 MAXIMUM STEPSIZE WHICH MEETS STABILITY CRITERION OF THE SINK & SOURCE TERM
 = 0.1000E+31(WHEN MIN. R.F.=1)  AT K=   0, I=   0, J=   0

 MAXIMUM STEPSIZE WHICH MEETS STABILITY CRITERION OF THE DISPERSION TERM
 = 0.5616E-02(WHEN MIN. R.F.=1)  AT K=   3, I=   2, J=  32
     1 CALLS TO GCG PACKAGE FOR TRANSPORT TIME STEP   9 IN FLOW TIME STEP  20 STRESS PERIOD   2
    16 TOTAL ITERATIONS
 
 SOLVING FOR HEAD 
 FLOW MODEL IS TRANSIENT
 FLOW MODEL CONTAINS CONSTANT-HEAD CELLS


 MAXIMUM STEPSIZE DURING WHICH ANY PARTICLE CANNOT MOVE MORE THAN ONE CELL
 = 0.1190    (WHEN MIN. R.F.=1)  AT K=   3, I=   2, J=  33

 MAXIMUM STEPSIZE WHICH MEETS STABILITY CRITERION OF THE ADVECTION TERM
 (FOR PURE FINITE-DIFFERENCE OPTION, MIXELM=0) 
 = 0.8152E-01(WHEN MIN. R.F.=1)  AT K=   3, I=   2, J=  32


 TOTAL NUMBER OF POINT SOURCES/SINKS PRESENT IN THE FLOW MODEL =   240

 MAXIMUM STEPSIZE WHICH MEETS STABILITY CRITERION OF THE SINK & SOURCE TERM
 = 0.1000E+31(WHEN MIN. R.F.=1)  AT K=   0, I=   0, J=   0

 MAXIMUM STEPSIZE WHICH MEETS STABILITY CRITERION OF THE DISPERSION TERM
 = 0.5616E-02(WHEN MIN. R.F.=1)  AT K=   3, I=   2, J=  32
     1 CALLS TO GCG PACKAGE FOR TRANSPORT TIME STEP  10 IN FLOW TIME STEP  20 STRESS PERIOD   2
    16 TOTAL ITERATIONS



 >>>>>>>>>>>>>>>>>>>>>>>>>>>>>>>>>>>>>>>>>>>>>>>>>>>>>>>FOR COMPONENT NO. 01<<<<<<<<<<<<<<<<<<<<<<<<<<<<<<<<<<<<<<<<<<<<<<<<<<<<<<<


                                            -------------------------------------------
                                                      TRANSPORT STEP NO.   10
                                            -------------------------------------------

 TOTAL ELAPSED TIME SINCE BEGINNING OF SIMULATION =   20.89230    D   
 .....................................................................

                     CUMULATIVE MASS BUDGETS AT END OF TRANSPORT STEP   10, TIME STEP   20, STRESS PERIOD    2
                     ------------------------------------------------------------------------------------------

                                                             IN                           OUT
                                                      ----------------             ----------------
                               CONSTANT CONCENTRATION:    4990.180                   -1608.627    
                                        CONSTANT HEAD:    0.000000                    0.000000    
                               MASS STOR (FLOW MODEL):   0.1200848E-01              -0.2966807E-02
                                MASS STORAGE (SOLUTE):   0.5620034E-06               -3381.563    
                            ---------------------------------------------------------------------------
                                              [TOTAL]:    4990.192     KG            -4990.193     KG  

                                                          NET (IN - OUT):  -0.1210171E-02
                                                   DISCREPANCY (PERCENT):  -0.2425098E-04
 
 SOLVING FOR HEAD 
 FLOW MODEL IS TRANSIENT
 FLOW MODEL CONTAINS CONSTANT-HEAD CELLS


 MAXIMUM STEPSIZE DURING WHICH ANY PARTICLE CANNOT MOVE MORE THAN ONE CELL
 = 0.1190    (WHEN MIN. R.F.=1)  AT K=   3, I=   2, J=  33

 MAXIMUM STEPSIZE WHICH MEETS STABILITY CRITERION OF THE ADVECTION TERM
 (FOR PURE FINITE-DIFFERENCE OPTION, MIXELM=0) 
 = 0.8152E-01(WHEN MIN. R.F.=1)  AT K=   3, I=   2, J=  32


 TOTAL NUMBER OF POINT SOURCES/SINKS PRESENT IN THE FLOW MODEL =   240

 MAXIMUM STEPSIZE WHICH MEETS STABILITY CRITERION OF THE SINK & SOURCE TERM
 = 0.1000E+31(WHEN MIN. R.F.=1)  AT K=   0, I=   0, J=   0

 MAXIMUM STEPSIZE WHICH MEETS STABILITY CRITERION OF THE DISPERSION TERM
 = 0.5615E-02(WHEN MIN. R.F.=1)  AT K=   3, I=   2, J=  32
     1 CALLS TO GCG PACKAGE FOR TRANSPORT TIME STEP  11 IN FLOW TIME STEP  20 STRESS PERIOD   2
    16 TOTAL ITERATIONS
 
 SOLVING FOR HEAD 
 FLOW MODEL IS TRANSIENT
 FLOW MODEL CONTAINS CONSTANT-HEAD CELLS


 MAXIMUM STEPSIZE DURING WHICH ANY PARTICLE CANNOT MOVE MORE THAN ONE CELL
 = 0.1190    (WHEN MIN. R.F.=1)  AT K=   3, I=   2, J=  33

 MAXIMUM STEPSIZE WHICH MEETS STABILITY CRITERION OF THE ADVECTION TERM
 (FOR PURE FINITE-DIFFERENCE OPTION, MIXELM=0) 
 = 0.8152E-01(WHEN MIN. R.F.=1)  AT K=   3, I=   2, J=  32


 TOTAL NUMBER OF POINT SOURCES/SINKS PRESENT IN THE FLOW MODEL =   240

 MAXIMUM STEPSIZE WHICH MEETS STABILITY CRITERION OF THE SINK & SOURCE TERM
 = 0.1000E+31(WHEN MIN. R.F.=1)  AT K=   0, I=   0, J=   0

 MAXIMUM STEPSIZE WHICH MEETS STABILITY CRITERION OF THE DISPERSION TERM
 = 0.5615E-02(WHEN MIN. R.F.=1)  AT K=   3, I=   2, J=  32
     1 CALLS TO GCG PACKAGE FOR TRANSPORT TIME STEP  12 IN FLOW TIME STEP  20 STRESS PERIOD   2
     8 TOTAL ITERATIONS
  MAXIMUM CONCENTRATION CHANGES FOR EACH ITERATION:
  MAX. CHANGE LAYER,ROW,COL MAX. CHANGE LAYER,ROW,COL MAX. CHANGE LAYER,ROW,COL MAX. CHANGE LAYER,ROW,COL MAX. CHANGE LAYER,ROW,COL
 ------------------------------------------------------------------------------------------------------------------------------------
   0.3877E-03 ( 12,  3, 51)  0.6211E-04 (  6,  2, 60)  0.8057E-05 (  5,  2, 57)  0.4081E-05 (  3,  2, 33)  0.1766E-05 (  4,  2, 33)
   0.6628E-06 (  3,  2, 33)  0.1714E-06 (  2,  2, 33)  0.6121E-07 (  3,  2, 33)


                                          ================================================
                                                         FROM TIME =   21.000     TO    22.000    

 
 SOLVING FOR HEAD 
 FLOW MODEL IS TRANSIENT
 FLOW MODEL CONTAINS CONSTANT-HEAD CELLS


 MAXIMUM STEPSIZE DURING WHICH ANY PARTICLE CANNOT MOVE MORE THAN ONE CELL
 = 0.1190    (WHEN MIN. R.F.=1)  AT K=   3, I=   2, J=  33

 MAXIMUM STEPSIZE WHICH MEETS STABILITY CRITERION OF THE ADVECTION TERM
 (FOR PURE FINITE-DIFFERENCE OPTION, MIXELM=0) 
 = 0.8152E-01(WHEN MIN. R.F.=1)  AT K=   3, I=   2, J=  32


 TOTAL NUMBER OF POINT SOURCES/SINKS PRESENT IN THE FLOW MODEL =   240

 MAXIMUM STEPSIZE WHICH MEETS STABILITY CRITERION OF THE SINK & SOURCE TERM
 = 0.1000E+31(WHEN MIN. R.F.=1)  AT K=   0, I=   0, J=   0

 MAXIMUM STEPSIZE WHICH MEETS STABILITY CRITERION OF THE DISPERSION TERM
 = 0.5615E-02(WHEN MIN. R.F.=1)  AT K=   3, I=   2, J=  32


     1 CALLS TO GCG PACKAGE FOR TRANSPORT TIME STEP   1 IN FLOW TIME STEP  21 STRESS PERIOD   2
    16 TOTAL ITERATIONS

 NO OUTPUT CONTROL FOR STRESS PERIOD    2   TIME STEP  21
 
 SOLVING FOR HEAD 
 FLOW MODEL IS TRANSIENT
 FLOW MODEL CONTAINS CONSTANT-HEAD CELLS


 MAXIMUM STEPSIZE DURING WHICH ANY PARTICLE CANNOT MOVE MORE THAN ONE CELL
 = 0.1190    (WHEN MIN. R.F.=1)  AT K=   3, I=   2, J=  33

 MAXIMUM STEPSIZE WHICH MEETS STABILITY CRITERION OF THE ADVECTION TERM
 (FOR PURE FINITE-DIFFERENCE OPTION, MIXELM=0) 
 = 0.8152E-01(WHEN MIN. R.F.=1)  AT K=   3, I=   2, J=  32


 TOTAL NUMBER OF POINT SOURCES/SINKS PRESENT IN THE FLOW MODEL =   240

 MAXIMUM STEPSIZE WHICH MEETS STABILITY CRITERION OF THE SINK & SOURCE TERM
 = 0.1000E+31(WHEN MIN. R.F.=1)  AT K=   0, I=   0, J=   0

 MAXIMUM STEPSIZE WHICH MEETS STABILITY CRITERION OF THE DISPERSION TERM
 = 0.5615E-02(WHEN MIN. R.F.=1)  AT K=   3, I=   2, J=  32
     1 CALLS TO GCG PACKAGE FOR TRANSPORT TIME STEP   2 IN FLOW TIME STEP  21 STRESS PERIOD   2
    16 TOTAL ITERATIONS
 
 SOLVING FOR HEAD 
 FLOW MODEL IS TRANSIENT
 FLOW MODEL CONTAINS CONSTANT-HEAD CELLS


 MAXIMUM STEPSIZE DURING WHICH ANY PARTICLE CANNOT MOVE MORE THAN ONE CELL
 = 0.1190    (WHEN MIN. R.F.=1)  AT K=   3, I=   2, J=  33

 MAXIMUM STEPSIZE WHICH MEETS STABILITY CRITERION OF THE ADVECTION TERM
 (FOR PURE FINITE-DIFFERENCE OPTION, MIXELM=0) 
 = 0.8152E-01(WHEN MIN. R.F.=1)  AT K=   3, I=   2, J=  32


 TOTAL NUMBER OF POINT SOURCES/SINKS PRESENT IN THE FLOW MODEL =   240

 MAXIMUM STEPSIZE WHICH MEETS STABILITY CRITERION OF THE SINK & SOURCE TERM
 = 0.1000E+31(WHEN MIN. R.F.=1)  AT K=   0, I=   0, J=   0

 MAXIMUM STEPSIZE WHICH MEETS STABILITY CRITERION OF THE DISPERSION TERM
 = 0.5615E-02(WHEN MIN. R.F.=1)  AT K=   3, I=   2, J=  32
     1 CALLS TO GCG PACKAGE FOR TRANSPORT TIME STEP   3 IN FLOW TIME STEP  21 STRESS PERIOD   2
    16 TOTAL ITERATIONS
 
 SOLVING FOR HEAD 
 FLOW MODEL IS TRANSIENT
 FLOW MODEL CONTAINS CONSTANT-HEAD CELLS


 MAXIMUM STEPSIZE DURING WHICH ANY PARTICLE CANNOT MOVE MORE THAN ONE CELL
 = 0.1190    (WHEN MIN. R.F.=1)  AT K=   3, I=   2, J=  33

 MAXIMUM STEPSIZE WHICH MEETS STABILITY CRITERION OF THE ADVECTION TERM
 (FOR PURE FINITE-DIFFERENCE OPTION, MIXELM=0) 
 = 0.8152E-01(WHEN MIN. R.F.=1)  AT K=   3, I=   2, J=  32


 TOTAL NUMBER OF POINT SOURCES/SINKS PRESENT IN THE FLOW MODEL =   240

 MAXIMUM STEPSIZE WHICH MEETS STABILITY CRITERION OF THE SINK & SOURCE TERM
 = 0.1000E+31(WHEN MIN. R.F.=1)  AT K=   0, I=   0, J=   0

 MAXIMUM STEPSIZE WHICH MEETS STABILITY CRITERION OF THE DISPERSION TERM
 = 0.5615E-02(WHEN MIN. R.F.=1)  AT K=   3, I=   2, J=  32
     1 CALLS TO GCG PACKAGE FOR TRANSPORT TIME STEP   4 IN FLOW TIME STEP  21 STRESS PERIOD   2
    16 TOTAL ITERATIONS
 
 SOLVING FOR HEAD 
 FLOW MODEL IS TRANSIENT
 FLOW MODEL CONTAINS CONSTANT-HEAD CELLS


 MAXIMUM STEPSIZE DURING WHICH ANY PARTICLE CANNOT MOVE MORE THAN ONE CELL
 = 0.1190    (WHEN MIN. R.F.=1)  AT K=   3, I=   2, J=  33

 MAXIMUM STEPSIZE WHICH MEETS STABILITY CRITERION OF THE ADVECTION TERM
 (FOR PURE FINITE-DIFFERENCE OPTION, MIXELM=0) 
 = 0.8152E-01(WHEN MIN. R.F.=1)  AT K=   3, I=   2, J=  32


 TOTAL NUMBER OF POINT SOURCES/SINKS PRESENT IN THE FLOW MODEL =   240

 MAXIMUM STEPSIZE WHICH MEETS STABILITY CRITERION OF THE SINK & SOURCE TERM
 = 0.1000E+31(WHEN MIN. R.F.=1)  AT K=   0, I=   0, J=   0

 MAXIMUM STEPSIZE WHICH MEETS STABILITY CRITERION OF THE DISPERSION TERM
 = 0.5615E-02(WHEN MIN. R.F.=1)  AT K=   3, I=   2, J=  32
     1 CALLS TO GCG PACKAGE FOR TRANSPORT TIME STEP   5 IN FLOW TIME STEP  21 STRESS PERIOD   2
    16 TOTAL ITERATIONS
 
 SOLVING FOR HEAD 
 FLOW MODEL IS TRANSIENT
 FLOW MODEL CONTAINS CONSTANT-HEAD CELLS


 MAXIMUM STEPSIZE DURING WHICH ANY PARTICLE CANNOT MOVE MORE THAN ONE CELL
 = 0.1190    (WHEN MIN. R.F.=1)  AT K=   3, I=   2, J=  33

 MAXIMUM STEPSIZE WHICH MEETS STABILITY CRITERION OF THE ADVECTION TERM
 (FOR PURE FINITE-DIFFERENCE OPTION, MIXELM=0) 
 = 0.8152E-01(WHEN MIN. R.F.=1)  AT K=   3, I=   2, J=  32


 TOTAL NUMBER OF POINT SOURCES/SINKS PRESENT IN THE FLOW MODEL =   240

 MAXIMUM STEPSIZE WHICH MEETS STABILITY CRITERION OF THE SINK & SOURCE TERM
 = 0.1000E+31(WHEN MIN. R.F.=1)  AT K=   0, I=   0, J=   0

 MAXIMUM STEPSIZE WHICH MEETS STABILITY CRITERION OF THE DISPERSION TERM
 = 0.5615E-02(WHEN MIN. R.F.=1)  AT K=   3, I=   2, J=  32
     1 CALLS TO GCG PACKAGE FOR TRANSPORT TIME STEP   6 IN FLOW TIME STEP  21 STRESS PERIOD   2
    16 TOTAL ITERATIONS
 
 SOLVING FOR HEAD 
 FLOW MODEL IS TRANSIENT
 FLOW MODEL CONTAINS CONSTANT-HEAD CELLS


 MAXIMUM STEPSIZE DURING WHICH ANY PARTICLE CANNOT MOVE MORE THAN ONE CELL
 = 0.1190    (WHEN MIN. R.F.=1)  AT K=   3, I=   2, J=  33

 MAXIMUM STEPSIZE WHICH MEETS STABILITY CRITERION OF THE ADVECTION TERM
 (FOR PURE FINITE-DIFFERENCE OPTION, MIXELM=0) 
 = 0.8152E-01(WHEN MIN. R.F.=1)  AT K=   3, I=   2, J=  32


 TOTAL NUMBER OF POINT SOURCES/SINKS PRESENT IN THE FLOW MODEL =   240

 MAXIMUM STEPSIZE WHICH MEETS STABILITY CRITERION OF THE SINK & SOURCE TERM
 = 0.1000E+31(WHEN MIN. R.F.=1)  AT K=   0, I=   0, J=   0

 MAXIMUM STEPSIZE WHICH MEETS STABILITY CRITERION OF THE DISPERSION TERM
 = 0.5615E-02(WHEN MIN. R.F.=1)  AT K=   3, I=   2, J=  32
     1 CALLS TO GCG PACKAGE FOR TRANSPORT TIME STEP   7 IN FLOW TIME STEP  21 STRESS PERIOD   2
    16 TOTAL ITERATIONS
 
 SOLVING FOR HEAD 
 FLOW MODEL IS TRANSIENT
 FLOW MODEL CONTAINS CONSTANT-HEAD CELLS


 MAXIMUM STEPSIZE DURING WHICH ANY PARTICLE CANNOT MOVE MORE THAN ONE CELL
 = 0.1190    (WHEN MIN. R.F.=1)  AT K=   3, I=   2, J=  33

 MAXIMUM STEPSIZE WHICH MEETS STABILITY CRITERION OF THE ADVECTION TERM
 (FOR PURE FINITE-DIFFERENCE OPTION, MIXELM=0) 
 = 0.8152E-01(WHEN MIN. R.F.=1)  AT K=   3, I=   2, J=  32


 TOTAL NUMBER OF POINT SOURCES/SINKS PRESENT IN THE FLOW MODEL =   240

 MAXIMUM STEPSIZE WHICH MEETS STABILITY CRITERION OF THE SINK & SOURCE TERM
 = 0.1000E+31(WHEN MIN. R.F.=1)  AT K=   0, I=   0, J=   0

 MAXIMUM STEPSIZE WHICH MEETS STABILITY CRITERION OF THE DISPERSION TERM
 = 0.5615E-02(WHEN MIN. R.F.=1)  AT K=   3, I=   2, J=  32
     1 CALLS TO GCG PACKAGE FOR TRANSPORT TIME STEP   8 IN FLOW TIME STEP  21 STRESS PERIOD   2
    16 TOTAL ITERATIONS
 
 SOLVING FOR HEAD 
 FLOW MODEL IS TRANSIENT
 FLOW MODEL CONTAINS CONSTANT-HEAD CELLS


 MAXIMUM STEPSIZE DURING WHICH ANY PARTICLE CANNOT MOVE MORE THAN ONE CELL
 = 0.1190    (WHEN MIN. R.F.=1)  AT K=   3, I=   2, J=  33

 MAXIMUM STEPSIZE WHICH MEETS STABILITY CRITERION OF THE ADVECTION TERM
 (FOR PURE FINITE-DIFFERENCE OPTION, MIXELM=0) 
 = 0.8152E-01(WHEN MIN. R.F.=1)  AT K=   3, I=   2, J=  32


 TOTAL NUMBER OF POINT SOURCES/SINKS PRESENT IN THE FLOW MODEL =   240

 MAXIMUM STEPSIZE WHICH MEETS STABILITY CRITERION OF THE SINK & SOURCE TERM
 = 0.1000E+31(WHEN MIN. R.F.=1)  AT K=   0, I=   0, J=   0

 MAXIMUM STEPSIZE WHICH MEETS STABILITY CRITERION OF THE DISPERSION TERM
 = 0.5615E-02(WHEN MIN. R.F.=1)  AT K=   3, I=   2, J=  32
     1 CALLS TO GCG PACKAGE FOR TRANSPORT TIME STEP   9 IN FLOW TIME STEP  21 STRESS PERIOD   2
    16 TOTAL ITERATIONS
 
 SOLVING FOR HEAD 
 FLOW MODEL IS TRANSIENT
 FLOW MODEL CONTAINS CONSTANT-HEAD CELLS


 MAXIMUM STEPSIZE DURING WHICH ANY PARTICLE CANNOT MOVE MORE THAN ONE CELL
 = 0.1190    (WHEN MIN. R.F.=1)  AT K=   3, I=   2, J=  33

 MAXIMUM STEPSIZE WHICH MEETS STABILITY CRITERION OF THE ADVECTION TERM
 (FOR PURE FINITE-DIFFERENCE OPTION, MIXELM=0) 
 = 0.8151E-01(WHEN MIN. R.F.=1)  AT K=   3, I=   2, J=  32


 TOTAL NUMBER OF POINT SOURCES/SINKS PRESENT IN THE FLOW MODEL =   240

 MAXIMUM STEPSIZE WHICH MEETS STABILITY CRITERION OF THE SINK & SOURCE TERM
 = 0.1000E+31(WHEN MIN. R.F.=1)  AT K=   0, I=   0, J=   0

 MAXIMUM STEPSIZE WHICH MEETS STABILITY CRITERION OF THE DISPERSION TERM
 = 0.5615E-02(WHEN MIN. R.F.=1)  AT K=   3, I=   2, J=  32
     1 CALLS TO GCG PACKAGE FOR TRANSPORT TIME STEP  10 IN FLOW TIME STEP  21 STRESS PERIOD   2
    16 TOTAL ITERATIONS



 >>>>>>>>>>>>>>>>>>>>>>>>>>>>>>>>>>>>>>>>>>>>>>>>>>>>>>>FOR COMPONENT NO. 01<<<<<<<<<<<<<<<<<<<<<<<<<<<<<<<<<<<<<<<<<<<<<<<<<<<<<<<


                                            -------------------------------------------
                                                      TRANSPORT STEP NO.   10
                                            -------------------------------------------

 TOTAL ELAPSED TIME SINCE BEGINNING OF SIMULATION =   21.89223    D   
 .....................................................................

                     CUMULATIVE MASS BUDGETS AT END OF TRANSPORT STEP   10, TIME STEP   21, STRESS PERIOD    2
                     ------------------------------------------------------------------------------------------

                                                             IN                           OUT
                                                      ----------------             ----------------
                               CONSTANT CONCENTRATION:    5137.039                   -1698.057    
                                        CONSTANT HEAD:    0.000000                    0.000000    
                               MASS STOR (FLOW MODEL):   0.1202599E-01              -0.2991556E-02
                                MASS STORAGE (SOLUTE):   0.5620034E-06               -3438.993    
                            ---------------------------------------------------------------------------
                                              [TOTAL]:    5137.051     KG            -5137.053     KG  

                                                          NET (IN - OUT):  -0.1278561E-02
                                                   DISCREPANCY (PERCENT):  -0.2488900E-04
 
 SOLVING FOR HEAD 
 FLOW MODEL IS TRANSIENT
 FLOW MODEL CONTAINS CONSTANT-HEAD CELLS


 MAXIMUM STEPSIZE DURING WHICH ANY PARTICLE CANNOT MOVE MORE THAN ONE CELL
 = 0.1190    (WHEN MIN. R.F.=1)  AT K=   3, I=   2, J=  33

 MAXIMUM STEPSIZE WHICH MEETS STABILITY CRITERION OF THE ADVECTION TERM
 (FOR PURE FINITE-DIFFERENCE OPTION, MIXELM=0) 
 = 0.8151E-01(WHEN MIN. R.F.=1)  AT K=   3, I=   2, J=  32


 TOTAL NUMBER OF POINT SOURCES/SINKS PRESENT IN THE FLOW MODEL =   240

 MAXIMUM STEPSIZE WHICH MEETS STABILITY CRITERION OF THE SINK & SOURCE TERM
 = 0.1000E+31(WHEN MIN. R.F.=1)  AT K=   0, I=   0, J=   0

 MAXIMUM STEPSIZE WHICH MEETS STABILITY CRITERION OF THE DISPERSION TERM
 = 0.5615E-02(WHEN MIN. R.F.=1)  AT K=   3, I=   2, J=  32
     1 CALLS TO GCG PACKAGE FOR TRANSPORT TIME STEP  11 IN FLOW TIME STEP  21 STRESS PERIOD   2
    16 TOTAL ITERATIONS
 
 SOLVING FOR HEAD 
 FLOW MODEL IS TRANSIENT
 FLOW MODEL CONTAINS CONSTANT-HEAD CELLS


 MAXIMUM STEPSIZE DURING WHICH ANY PARTICLE CANNOT MOVE MORE THAN ONE CELL
 = 0.1190    (WHEN MIN. R.F.=1)  AT K=   3, I=   2, J=  33

 MAXIMUM STEPSIZE WHICH MEETS STABILITY CRITERION OF THE ADVECTION TERM
 (FOR PURE FINITE-DIFFERENCE OPTION, MIXELM=0) 
 = 0.8151E-01(WHEN MIN. R.F.=1)  AT K=   3, I=   2, J=  32


 TOTAL NUMBER OF POINT SOURCES/SINKS PRESENT IN THE FLOW MODEL =   240

 MAXIMUM STEPSIZE WHICH MEETS STABILITY CRITERION OF THE SINK & SOURCE TERM
 = 0.1000E+31(WHEN MIN. R.F.=1)  AT K=   0, I=   0, J=   0

 MAXIMUM STEPSIZE WHICH MEETS STABILITY CRITERION OF THE DISPERSION TERM
 = 0.5615E-02(WHEN MIN. R.F.=1)  AT K=   3, I=   2, J=  32
     1 CALLS TO GCG PACKAGE FOR TRANSPORT TIME STEP  12 IN FLOW TIME STEP  21 STRESS PERIOD   2
     8 TOTAL ITERATIONS
  MAXIMUM CONCENTRATION CHANGES FOR EACH ITERATION:
  MAX. CHANGE LAYER,ROW,COL MAX. CHANGE LAYER,ROW,COL MAX. CHANGE LAYER,ROW,COL MAX. CHANGE LAYER,ROW,COL MAX. CHANGE LAYER,ROW,COL
 ------------------------------------------------------------------------------------------------------------------------------------
   0.3661E-03 ( 12,  3, 51)  0.5853E-04 (  6,  2, 60)  0.7651E-05 (  5,  2, 57)  0.3736E-05 (  3,  2, 33)  0.1623E-05 (  4,  2, 33)
   0.6121E-06 (  3,  2, 33)  0.1587E-06 (  2,  2, 33)  0.5681E-07 (  3,  2, 33)


                                          ================================================
                                                         FROM TIME =   22.000     TO    23.000    

 
 SOLVING FOR HEAD 
 FLOW MODEL IS TRANSIENT
 FLOW MODEL CONTAINS CONSTANT-HEAD CELLS


 MAXIMUM STEPSIZE DURING WHICH ANY PARTICLE CANNOT MOVE MORE THAN ONE CELL
 = 0.1190    (WHEN MIN. R.F.=1)  AT K=   3, I=   2, J=  33

 MAXIMUM STEPSIZE WHICH MEETS STABILITY CRITERION OF THE ADVECTION TERM
 (FOR PURE FINITE-DIFFERENCE OPTION, MIXELM=0) 
 = 0.8151E-01(WHEN MIN. R.F.=1)  AT K=   3, I=   2, J=  32


 TOTAL NUMBER OF POINT SOURCES/SINKS PRESENT IN THE FLOW MODEL =   240

 MAXIMUM STEPSIZE WHICH MEETS STABILITY CRITERION OF THE SINK & SOURCE TERM
 = 0.1000E+31(WHEN MIN. R.F.=1)  AT K=   0, I=   0, J=   0

 MAXIMUM STEPSIZE WHICH MEETS STABILITY CRITERION OF THE DISPERSION TERM
 = 0.5615E-02(WHEN MIN. R.F.=1)  AT K=   3, I=   2, J=  32


     1 CALLS TO GCG PACKAGE FOR TRANSPORT TIME STEP   1 IN FLOW TIME STEP  22 STRESS PERIOD   2
    16 TOTAL ITERATIONS

 NO OUTPUT CONTROL FOR STRESS PERIOD    2   TIME STEP  22
 
 SOLVING FOR HEAD 
 FLOW MODEL IS TRANSIENT
 FLOW MODEL CONTAINS CONSTANT-HEAD CELLS


 MAXIMUM STEPSIZE DURING WHICH ANY PARTICLE CANNOT MOVE MORE THAN ONE CELL
 = 0.1190    (WHEN MIN. R.F.=1)  AT K=   3, I=   2, J=  33

 MAXIMUM STEPSIZE WHICH MEETS STABILITY CRITERION OF THE ADVECTION TERM
 (FOR PURE FINITE-DIFFERENCE OPTION, MIXELM=0) 
 = 0.8151E-01(WHEN MIN. R.F.=1)  AT K=   3, I=   2, J=  32


 TOTAL NUMBER OF POINT SOURCES/SINKS PRESENT IN THE FLOW MODEL =   240

 MAXIMUM STEPSIZE WHICH MEETS STABILITY CRITERION OF THE SINK & SOURCE TERM
 = 0.1000E+31(WHEN MIN. R.F.=1)  AT K=   0, I=   0, J=   0

 MAXIMUM STEPSIZE WHICH MEETS STABILITY CRITERION OF THE DISPERSION TERM
 = 0.5615E-02(WHEN MIN. R.F.=1)  AT K=   3, I=   2, J=  32
     1 CALLS TO GCG PACKAGE FOR TRANSPORT TIME STEP   2 IN FLOW TIME STEP  22 STRESS PERIOD   2
    16 TOTAL ITERATIONS
 
 SOLVING FOR HEAD 
 FLOW MODEL IS TRANSIENT
 FLOW MODEL CONTAINS CONSTANT-HEAD CELLS


 MAXIMUM STEPSIZE DURING WHICH ANY PARTICLE CANNOT MOVE MORE THAN ONE CELL
 = 0.1190    (WHEN MIN. R.F.=1)  AT K=   3, I=   2, J=  33

 MAXIMUM STEPSIZE WHICH MEETS STABILITY CRITERION OF THE ADVECTION TERM
 (FOR PURE FINITE-DIFFERENCE OPTION, MIXELM=0) 
 = 0.8151E-01(WHEN MIN. R.F.=1)  AT K=   3, I=   2, J=  32


 TOTAL NUMBER OF POINT SOURCES/SINKS PRESENT IN THE FLOW MODEL =   240

 MAXIMUM STEPSIZE WHICH MEETS STABILITY CRITERION OF THE SINK & SOURCE TERM
 = 0.1000E+31(WHEN MIN. R.F.=1)  AT K=   0, I=   0, J=   0

 MAXIMUM STEPSIZE WHICH MEETS STABILITY CRITERION OF THE DISPERSION TERM
 = 0.5615E-02(WHEN MIN. R.F.=1)  AT K=   3, I=   2, J=  32
     1 CALLS TO GCG PACKAGE FOR TRANSPORT TIME STEP   3 IN FLOW TIME STEP  22 STRESS PERIOD   2
    16 TOTAL ITERATIONS
 
 SOLVING FOR HEAD 
 FLOW MODEL IS TRANSIENT
 FLOW MODEL CONTAINS CONSTANT-HEAD CELLS


 MAXIMUM STEPSIZE DURING WHICH ANY PARTICLE CANNOT MOVE MORE THAN ONE CELL
 = 0.1190    (WHEN MIN. R.F.=1)  AT K=   3, I=   2, J=  33

 MAXIMUM STEPSIZE WHICH MEETS STABILITY CRITERION OF THE ADVECTION TERM
 (FOR PURE FINITE-DIFFERENCE OPTION, MIXELM=0) 
 = 0.8151E-01(WHEN MIN. R.F.=1)  AT K=   3, I=   2, J=  32


 TOTAL NUMBER OF POINT SOURCES/SINKS PRESENT IN THE FLOW MODEL =   240

 MAXIMUM STEPSIZE WHICH MEETS STABILITY CRITERION OF THE SINK & SOURCE TERM
 = 0.1000E+31(WHEN MIN. R.F.=1)  AT K=   0, I=   0, J=   0

 MAXIMUM STEPSIZE WHICH MEETS STABILITY CRITERION OF THE DISPERSION TERM
 = 0.5615E-02(WHEN MIN. R.F.=1)  AT K=   3, I=   2, J=  32
     1 CALLS TO GCG PACKAGE FOR TRANSPORT TIME STEP   4 IN FLOW TIME STEP  22 STRESS PERIOD   2
    16 TOTAL ITERATIONS
 
 SOLVING FOR HEAD 
 FLOW MODEL IS TRANSIENT
 FLOW MODEL CONTAINS CONSTANT-HEAD CELLS


 MAXIMUM STEPSIZE DURING WHICH ANY PARTICLE CANNOT MOVE MORE THAN ONE CELL
 = 0.1190    (WHEN MIN. R.F.=1)  AT K=   3, I=   2, J=  33

 MAXIMUM STEPSIZE WHICH MEETS STABILITY CRITERION OF THE ADVECTION TERM
 (FOR PURE FINITE-DIFFERENCE OPTION, MIXELM=0) 
 = 0.8151E-01(WHEN MIN. R.F.=1)  AT K=   3, I=   2, J=  32


 TOTAL NUMBER OF POINT SOURCES/SINKS PRESENT IN THE FLOW MODEL =   240

 MAXIMUM STEPSIZE WHICH MEETS STABILITY CRITERION OF THE SINK & SOURCE TERM
 = 0.1000E+31(WHEN MIN. R.F.=1)  AT K=   0, I=   0, J=   0

 MAXIMUM STEPSIZE WHICH MEETS STABILITY CRITERION OF THE DISPERSION TERM
 = 0.5615E-02(WHEN MIN. R.F.=1)  AT K=   3, I=   2, J=  32
     1 CALLS TO GCG PACKAGE FOR TRANSPORT TIME STEP   5 IN FLOW TIME STEP  22 STRESS PERIOD   2
    16 TOTAL ITERATIONS
 
 SOLVING FOR HEAD 
 FLOW MODEL IS TRANSIENT
 FLOW MODEL CONTAINS CONSTANT-HEAD CELLS


 MAXIMUM STEPSIZE DURING WHICH ANY PARTICLE CANNOT MOVE MORE THAN ONE CELL
 = 0.1190    (WHEN MIN. R.F.=1)  AT K=   3, I=   2, J=  33

 MAXIMUM STEPSIZE WHICH MEETS STABILITY CRITERION OF THE ADVECTION TERM
 (FOR PURE FINITE-DIFFERENCE OPTION, MIXELM=0) 
 = 0.8151E-01(WHEN MIN. R.F.=1)  AT K=   3, I=   2, J=  32


 TOTAL NUMBER OF POINT SOURCES/SINKS PRESENT IN THE FLOW MODEL =   240

 MAXIMUM STEPSIZE WHICH MEETS STABILITY CRITERION OF THE SINK & SOURCE TERM
 = 0.1000E+31(WHEN MIN. R.F.=1)  AT K=   0, I=   0, J=   0

 MAXIMUM STEPSIZE WHICH MEETS STABILITY CRITERION OF THE DISPERSION TERM
 = 0.5615E-02(WHEN MIN. R.F.=1)  AT K=   3, I=   2, J=  32
     1 CALLS TO GCG PACKAGE FOR TRANSPORT TIME STEP   6 IN FLOW TIME STEP  22 STRESS PERIOD   2
    16 TOTAL ITERATIONS
 
 SOLVING FOR HEAD 
 FLOW MODEL IS TRANSIENT
 FLOW MODEL CONTAINS CONSTANT-HEAD CELLS


 MAXIMUM STEPSIZE DURING WHICH ANY PARTICLE CANNOT MOVE MORE THAN ONE CELL
 = 0.1190    (WHEN MIN. R.F.=1)  AT K=   3, I=   2, J=  33

 MAXIMUM STEPSIZE WHICH MEETS STABILITY CRITERION OF THE ADVECTION TERM
 (FOR PURE FINITE-DIFFERENCE OPTION, MIXELM=0) 
 = 0.8151E-01(WHEN MIN. R.F.=1)  AT K=   3, I=   2, J=  32


 TOTAL NUMBER OF POINT SOURCES/SINKS PRESENT IN THE FLOW MODEL =   240

 MAXIMUM STEPSIZE WHICH MEETS STABILITY CRITERION OF THE SINK & SOURCE TERM
 = 0.1000E+31(WHEN MIN. R.F.=1)  AT K=   0, I=   0, J=   0

 MAXIMUM STEPSIZE WHICH MEETS STABILITY CRITERION OF THE DISPERSION TERM
 = 0.5615E-02(WHEN MIN. R.F.=1)  AT K=   3, I=   2, J=  32
     1 CALLS TO GCG PACKAGE FOR TRANSPORT TIME STEP   7 IN FLOW TIME STEP  22 STRESS PERIOD   2
    16 TOTAL ITERATIONS
 
 SOLVING FOR HEAD 
 FLOW MODEL IS TRANSIENT
 FLOW MODEL CONTAINS CONSTANT-HEAD CELLS


 MAXIMUM STEPSIZE DURING WHICH ANY PARTICLE CANNOT MOVE MORE THAN ONE CELL
 = 0.1190    (WHEN MIN. R.F.=1)  AT K=   3, I=   2, J=  33

 MAXIMUM STEPSIZE WHICH MEETS STABILITY CRITERION OF THE ADVECTION TERM
 (FOR PURE FINITE-DIFFERENCE OPTION, MIXELM=0) 
 = 0.8151E-01(WHEN MIN. R.F.=1)  AT K=   3, I=   2, J=  32


 TOTAL NUMBER OF POINT SOURCES/SINKS PRESENT IN THE FLOW MODEL =   240

 MAXIMUM STEPSIZE WHICH MEETS STABILITY CRITERION OF THE SINK & SOURCE TERM
 = 0.1000E+31(WHEN MIN. R.F.=1)  AT K=   0, I=   0, J=   0

 MAXIMUM STEPSIZE WHICH MEETS STABILITY CRITERION OF THE DISPERSION TERM
 = 0.5615E-02(WHEN MIN. R.F.=1)  AT K=   3, I=   2, J=  32
     1 CALLS TO GCG PACKAGE FOR TRANSPORT TIME STEP   8 IN FLOW TIME STEP  22 STRESS PERIOD   2
    16 TOTAL ITERATIONS
 
 SOLVING FOR HEAD 
 FLOW MODEL IS TRANSIENT
 FLOW MODEL CONTAINS CONSTANT-HEAD CELLS


 MAXIMUM STEPSIZE DURING WHICH ANY PARTICLE CANNOT MOVE MORE THAN ONE CELL
 = 0.1190    (WHEN MIN. R.F.=1)  AT K=   3, I=   2, J=  33

 MAXIMUM STEPSIZE WHICH MEETS STABILITY CRITERION OF THE ADVECTION TERM
 (FOR PURE FINITE-DIFFERENCE OPTION, MIXELM=0) 
 = 0.8151E-01(WHEN MIN. R.F.=1)  AT K=   3, I=   2, J=  32


 TOTAL NUMBER OF POINT SOURCES/SINKS PRESENT IN THE FLOW MODEL =   240

 MAXIMUM STEPSIZE WHICH MEETS STABILITY CRITERION OF THE SINK & SOURCE TERM
 = 0.1000E+31(WHEN MIN. R.F.=1)  AT K=   0, I=   0, J=   0

 MAXIMUM STEPSIZE WHICH MEETS STABILITY CRITERION OF THE DISPERSION TERM
 = 0.5615E-02(WHEN MIN. R.F.=1)  AT K=   3, I=   2, J=  32
     1 CALLS TO GCG PACKAGE FOR TRANSPORT TIME STEP   9 IN FLOW TIME STEP  22 STRESS PERIOD   2
    16 TOTAL ITERATIONS
 
 SOLVING FOR HEAD 
 FLOW MODEL IS TRANSIENT
 FLOW MODEL CONTAINS CONSTANT-HEAD CELLS


 MAXIMUM STEPSIZE DURING WHICH ANY PARTICLE CANNOT MOVE MORE THAN ONE CELL
 = 0.1190    (WHEN MIN. R.F.=1)  AT K=   3, I=   2, J=  33

 MAXIMUM STEPSIZE WHICH MEETS STABILITY CRITERION OF THE ADVECTION TERM
 (FOR PURE FINITE-DIFFERENCE OPTION, MIXELM=0) 
 = 0.8151E-01(WHEN MIN. R.F.=1)  AT K=   3, I=   2, J=  32


 TOTAL NUMBER OF POINT SOURCES/SINKS PRESENT IN THE FLOW MODEL =   240

 MAXIMUM STEPSIZE WHICH MEETS STABILITY CRITERION OF THE SINK & SOURCE TERM
 = 0.1000E+31(WHEN MIN. R.F.=1)  AT K=   0, I=   0, J=   0

 MAXIMUM STEPSIZE WHICH MEETS STABILITY CRITERION OF THE DISPERSION TERM
 = 0.5615E-02(WHEN MIN. R.F.=1)  AT K=   3, I=   2, J=  32
     1 CALLS TO GCG PACKAGE FOR TRANSPORT TIME STEP  10 IN FLOW TIME STEP  22 STRESS PERIOD   2
    16 TOTAL ITERATIONS



 >>>>>>>>>>>>>>>>>>>>>>>>>>>>>>>>>>>>>>>>>>>>>>>>>>>>>>>FOR COMPONENT NO. 01<<<<<<<<<<<<<<<<<<<<<<<<<<<<<<<<<<<<<<<<<<<<<<<<<<<<<<<


                                            -------------------------------------------
                                                      TRANSPORT STEP NO.   10
                                            -------------------------------------------

 TOTAL ELAPSED TIME SINCE BEGINNING OF SIMULATION =   22.89216    D   
 .....................................................................

                     CUMULATIVE MASS BUDGETS AT END OF TRANSPORT STEP   10, TIME STEP   22, STRESS PERIOD    2
                     ------------------------------------------------------------------------------------------

                                                             IN                           OUT
                                                      ----------------             ----------------
                               CONSTANT CONCENTRATION:    5281.273                   -1787.711    
                                        CONSTANT HEAD:    0.000000                    0.000000    
                               MASS STOR (FLOW MODEL):   0.1204392E-01              -0.3014341E-02
                                MASS STORAGE (SOLUTE):   0.5620034E-06               -3493.572    
                            ---------------------------------------------------------------------------
                                              [TOTAL]:    5281.285     KG            -5281.286     KG  

                                                          NET (IN - OUT):  -0.1341744E-02
                                                   DISCREPANCY (PERCENT):  -0.2540563E-04
 
 SOLVING FOR HEAD 
 FLOW MODEL IS TRANSIENT
 FLOW MODEL CONTAINS CONSTANT-HEAD CELLS


 MAXIMUM STEPSIZE DURING WHICH ANY PARTICLE CANNOT MOVE MORE THAN ONE CELL
 = 0.1189    (WHEN MIN. R.F.=1)  AT K=   3, I=   2, J=  33

 MAXIMUM STEPSIZE WHICH MEETS STABILITY CRITERION OF THE ADVECTION TERM
 (FOR PURE FINITE-DIFFERENCE OPTION, MIXELM=0) 
 = 0.8151E-01(WHEN MIN. R.F.=1)  AT K=   3, I=   2, J=  32


 TOTAL NUMBER OF POINT SOURCES/SINKS PRESENT IN THE FLOW MODEL =   240

 MAXIMUM STEPSIZE WHICH MEETS STABILITY CRITERION OF THE SINK & SOURCE TERM
 = 0.1000E+31(WHEN MIN. R.F.=1)  AT K=   0, I=   0, J=   0

 MAXIMUM STEPSIZE WHICH MEETS STABILITY CRITERION OF THE DISPERSION TERM
 = 0.5615E-02(WHEN MIN. R.F.=1)  AT K=   3, I=   2, J=  32
     1 CALLS TO GCG PACKAGE FOR TRANSPORT TIME STEP  11 IN FLOW TIME STEP  22 STRESS PERIOD   2
    16 TOTAL ITERATIONS
 
 SOLVING FOR HEAD 
 FLOW MODEL IS TRANSIENT
 FLOW MODEL CONTAINS CONSTANT-HEAD CELLS


 MAXIMUM STEPSIZE DURING WHICH ANY PARTICLE CANNOT MOVE MORE THAN ONE CELL
 = 0.1189    (WHEN MIN. R.F.=1)  AT K=   3, I=   2, J=  33

 MAXIMUM STEPSIZE WHICH MEETS STABILITY CRITERION OF THE ADVECTION TERM
 (FOR PURE FINITE-DIFFERENCE OPTION, MIXELM=0) 
 = 0.8151E-01(WHEN MIN. R.F.=1)  AT K=   3, I=   2, J=  32


 TOTAL NUMBER OF POINT SOURCES/SINKS PRESENT IN THE FLOW MODEL =   240

 MAXIMUM STEPSIZE WHICH MEETS STABILITY CRITERION OF THE SINK & SOURCE TERM
 = 0.1000E+31(WHEN MIN. R.F.=1)  AT K=   0, I=   0, J=   0

 MAXIMUM STEPSIZE WHICH MEETS STABILITY CRITERION OF THE DISPERSION TERM
 = 0.5615E-02(WHEN MIN. R.F.=1)  AT K=   3, I=   2, J=  32
     1 CALLS TO GCG PACKAGE FOR TRANSPORT TIME STEP  12 IN FLOW TIME STEP  22 STRESS PERIOD   2
     8 TOTAL ITERATIONS
  MAXIMUM CONCENTRATION CHANGES FOR EACH ITERATION:
  MAX. CHANGE LAYER,ROW,COL MAX. CHANGE LAYER,ROW,COL MAX. CHANGE LAYER,ROW,COL MAX. CHANGE LAYER,ROW,COL MAX. CHANGE LAYER,ROW,COL
 ------------------------------------------------------------------------------------------------------------------------------------
   0.3529E-03 ( 13,  2, 57)  0.5522E-04 (  6,  2, 60)  0.7271E-05 (  5,  2, 57)  0.3431E-05 (  3,  2, 33)  0.1496E-05 (  4,  2, 33)
   0.5668E-06 (  3,  2, 33)  0.1473E-06 (  2,  2, 33)  0.5285E-07 (  3,  2, 33)


                                          ================================================
                                                         FROM TIME =   23.000     TO    24.000    

 
 SOLVING FOR HEAD 
 FLOW MODEL IS TRANSIENT
 FLOW MODEL CONTAINS CONSTANT-HEAD CELLS


 MAXIMUM STEPSIZE DURING WHICH ANY PARTICLE CANNOT MOVE MORE THAN ONE CELL
 = 0.1189    (WHEN MIN. R.F.=1)  AT K=   3, I=   2, J=  33

 MAXIMUM STEPSIZE WHICH MEETS STABILITY CRITERION OF THE ADVECTION TERM
 (FOR PURE FINITE-DIFFERENCE OPTION, MIXELM=0) 
 = 0.8151E-01(WHEN MIN. R.F.=1)  AT K=   3, I=   2, J=  32


 TOTAL NUMBER OF POINT SOURCES/SINKS PRESENT IN THE FLOW MODEL =   240

 MAXIMUM STEPSIZE WHICH MEETS STABILITY CRITERION OF THE SINK & SOURCE TERM
 = 0.1000E+31(WHEN MIN. R.F.=1)  AT K=   0, I=   0, J=   0

 MAXIMUM STEPSIZE WHICH MEETS STABILITY CRITERION OF THE DISPERSION TERM
 = 0.5615E-02(WHEN MIN. R.F.=1)  AT K=   3, I=   2, J=  32


     1 CALLS TO GCG PACKAGE FOR TRANSPORT TIME STEP   1 IN FLOW TIME STEP  23 STRESS PERIOD   2
    15 TOTAL ITERATIONS

 NO OUTPUT CONTROL FOR STRESS PERIOD    2   TIME STEP  23
 
 SOLVING FOR HEAD 
 FLOW MODEL IS TRANSIENT
 FLOW MODEL CONTAINS CONSTANT-HEAD CELLS


 MAXIMUM STEPSIZE DURING WHICH ANY PARTICLE CANNOT MOVE MORE THAN ONE CELL
 = 0.1189    (WHEN MIN. R.F.=1)  AT K=   3, I=   2, J=  33

 MAXIMUM STEPSIZE WHICH MEETS STABILITY CRITERION OF THE ADVECTION TERM
 (FOR PURE FINITE-DIFFERENCE OPTION, MIXELM=0) 
 = 0.8151E-01(WHEN MIN. R.F.=1)  AT K=   3, I=   2, J=  32


 TOTAL NUMBER OF POINT SOURCES/SINKS PRESENT IN THE FLOW MODEL =   240

 MAXIMUM STEPSIZE WHICH MEETS STABILITY CRITERION OF THE SINK & SOURCE TERM
 = 0.1000E+31(WHEN MIN. R.F.=1)  AT K=   0, I=   0, J=   0

 MAXIMUM STEPSIZE WHICH MEETS STABILITY CRITERION OF THE DISPERSION TERM
 = 0.5615E-02(WHEN MIN. R.F.=1)  AT K=   3, I=   2, J=  32
     1 CALLS TO GCG PACKAGE FOR TRANSPORT TIME STEP   2 IN FLOW TIME STEP  23 STRESS PERIOD   2
    15 TOTAL ITERATIONS
 
 SOLVING FOR HEAD 
 FLOW MODEL IS TRANSIENT
 FLOW MODEL CONTAINS CONSTANT-HEAD CELLS


 MAXIMUM STEPSIZE DURING WHICH ANY PARTICLE CANNOT MOVE MORE THAN ONE CELL
 = 0.1189    (WHEN MIN. R.F.=1)  AT K=   3, I=   2, J=  33

 MAXIMUM STEPSIZE WHICH MEETS STABILITY CRITERION OF THE ADVECTION TERM
 (FOR PURE FINITE-DIFFERENCE OPTION, MIXELM=0) 
 = 0.8151E-01(WHEN MIN. R.F.=1)  AT K=   3, I=   2, J=  32


 TOTAL NUMBER OF POINT SOURCES/SINKS PRESENT IN THE FLOW MODEL =   240

 MAXIMUM STEPSIZE WHICH MEETS STABILITY CRITERION OF THE SINK & SOURCE TERM
 = 0.1000E+31(WHEN MIN. R.F.=1)  AT K=   0, I=   0, J=   0

 MAXIMUM STEPSIZE WHICH MEETS STABILITY CRITERION OF THE DISPERSION TERM
 = 0.5615E-02(WHEN MIN. R.F.=1)  AT K=   3, I=   2, J=  32
     1 CALLS TO GCG PACKAGE FOR TRANSPORT TIME STEP   3 IN FLOW TIME STEP  23 STRESS PERIOD   2
    15 TOTAL ITERATIONS
 
 SOLVING FOR HEAD 
 FLOW MODEL IS TRANSIENT
 FLOW MODEL CONTAINS CONSTANT-HEAD CELLS


 MAXIMUM STEPSIZE DURING WHICH ANY PARTICLE CANNOT MOVE MORE THAN ONE CELL
 = 0.1189    (WHEN MIN. R.F.=1)  AT K=   3, I=   2, J=  33

 MAXIMUM STEPSIZE WHICH MEETS STABILITY CRITERION OF THE ADVECTION TERM
 (FOR PURE FINITE-DIFFERENCE OPTION, MIXELM=0) 
 = 0.8151E-01(WHEN MIN. R.F.=1)  AT K=   3, I=   2, J=  32


 TOTAL NUMBER OF POINT SOURCES/SINKS PRESENT IN THE FLOW MODEL =   240

 MAXIMUM STEPSIZE WHICH MEETS STABILITY CRITERION OF THE SINK & SOURCE TERM
 = 0.1000E+31(WHEN MIN. R.F.=1)  AT K=   0, I=   0, J=   0

 MAXIMUM STEPSIZE WHICH MEETS STABILITY CRITERION OF THE DISPERSION TERM
 = 0.5615E-02(WHEN MIN. R.F.=1)  AT K=   3, I=   2, J=  32
     1 CALLS TO GCG PACKAGE FOR TRANSPORT TIME STEP   4 IN FLOW TIME STEP  23 STRESS PERIOD   2
    15 TOTAL ITERATIONS
 
 SOLVING FOR HEAD 
 FLOW MODEL IS TRANSIENT
 FLOW MODEL CONTAINS CONSTANT-HEAD CELLS


 MAXIMUM STEPSIZE DURING WHICH ANY PARTICLE CANNOT MOVE MORE THAN ONE CELL
 = 0.1189    (WHEN MIN. R.F.=1)  AT K=   3, I=   2, J=  33

 MAXIMUM STEPSIZE WHICH MEETS STABILITY CRITERION OF THE ADVECTION TERM
 (FOR PURE FINITE-DIFFERENCE OPTION, MIXELM=0) 
 = 0.8151E-01(WHEN MIN. R.F.=1)  AT K=   3, I=   2, J=  32


 TOTAL NUMBER OF POINT SOURCES/SINKS PRESENT IN THE FLOW MODEL =   240

 MAXIMUM STEPSIZE WHICH MEETS STABILITY CRITERION OF THE SINK & SOURCE TERM
 = 0.1000E+31(WHEN MIN. R.F.=1)  AT K=   0, I=   0, J=   0

 MAXIMUM STEPSIZE WHICH MEETS STABILITY CRITERION OF THE DISPERSION TERM
 = 0.5614E-02(WHEN MIN. R.F.=1)  AT K=   3, I=   2, J=  32
     1 CALLS TO GCG PACKAGE FOR TRANSPORT TIME STEP   5 IN FLOW TIME STEP  23 STRESS PERIOD   2
    15 TOTAL ITERATIONS
 
 SOLVING FOR HEAD 
 FLOW MODEL IS TRANSIENT
 FLOW MODEL CONTAINS CONSTANT-HEAD CELLS


 MAXIMUM STEPSIZE DURING WHICH ANY PARTICLE CANNOT MOVE MORE THAN ONE CELL
 = 0.1189    (WHEN MIN. R.F.=1)  AT K=   3, I=   2, J=  33

 MAXIMUM STEPSIZE WHICH MEETS STABILITY CRITERION OF THE ADVECTION TERM
 (FOR PURE FINITE-DIFFERENCE OPTION, MIXELM=0) 
 = 0.8151E-01(WHEN MIN. R.F.=1)  AT K=   3, I=   2, J=  32


 TOTAL NUMBER OF POINT SOURCES/SINKS PRESENT IN THE FLOW MODEL =   240

 MAXIMUM STEPSIZE WHICH MEETS STABILITY CRITERION OF THE SINK & SOURCE TERM
 = 0.1000E+31(WHEN MIN. R.F.=1)  AT K=   0, I=   0, J=   0

 MAXIMUM STEPSIZE WHICH MEETS STABILITY CRITERION OF THE DISPERSION TERM
 = 0.5614E-02(WHEN MIN. R.F.=1)  AT K=   3, I=   2, J=  32
     1 CALLS TO GCG PACKAGE FOR TRANSPORT TIME STEP   6 IN FLOW TIME STEP  23 STRESS PERIOD   2
    15 TOTAL ITERATIONS
 
 SOLVING FOR HEAD 
 FLOW MODEL IS TRANSIENT
 FLOW MODEL CONTAINS CONSTANT-HEAD CELLS


 MAXIMUM STEPSIZE DURING WHICH ANY PARTICLE CANNOT MOVE MORE THAN ONE CELL
 = 0.1189    (WHEN MIN. R.F.=1)  AT K=   3, I=   2, J=  33

 MAXIMUM STEPSIZE WHICH MEETS STABILITY CRITERION OF THE ADVECTION TERM
 (FOR PURE FINITE-DIFFERENCE OPTION, MIXELM=0) 
 = 0.8151E-01(WHEN MIN. R.F.=1)  AT K=   3, I=   2, J=  32


 TOTAL NUMBER OF POINT SOURCES/SINKS PRESENT IN THE FLOW MODEL =   240

 MAXIMUM STEPSIZE WHICH MEETS STABILITY CRITERION OF THE SINK & SOURCE TERM
 = 0.1000E+31(WHEN MIN. R.F.=1)  AT K=   0, I=   0, J=   0

 MAXIMUM STEPSIZE WHICH MEETS STABILITY CRITERION OF THE DISPERSION TERM
 = 0.5614E-02(WHEN MIN. R.F.=1)  AT K=   3, I=   2, J=  32
     1 CALLS TO GCG PACKAGE FOR TRANSPORT TIME STEP   7 IN FLOW TIME STEP  23 STRESS PERIOD   2
    15 TOTAL ITERATIONS
 
 SOLVING FOR HEAD 
 FLOW MODEL IS TRANSIENT
 FLOW MODEL CONTAINS CONSTANT-HEAD CELLS


 MAXIMUM STEPSIZE DURING WHICH ANY PARTICLE CANNOT MOVE MORE THAN ONE CELL
 = 0.1189    (WHEN MIN. R.F.=1)  AT K=   3, I=   2, J=  33

 MAXIMUM STEPSIZE WHICH MEETS STABILITY CRITERION OF THE ADVECTION TERM
 (FOR PURE FINITE-DIFFERENCE OPTION, MIXELM=0) 
 = 0.8150E-01(WHEN MIN. R.F.=1)  AT K=   3, I=   2, J=  32


 TOTAL NUMBER OF POINT SOURCES/SINKS PRESENT IN THE FLOW MODEL =   240

 MAXIMUM STEPSIZE WHICH MEETS STABILITY CRITERION OF THE SINK & SOURCE TERM
 = 0.1000E+31(WHEN MIN. R.F.=1)  AT K=   0, I=   0, J=   0

 MAXIMUM STEPSIZE WHICH MEETS STABILITY CRITERION OF THE DISPERSION TERM
 = 0.5614E-02(WHEN MIN. R.F.=1)  AT K=   3, I=   2, J=  32
     1 CALLS TO GCG PACKAGE FOR TRANSPORT TIME STEP   8 IN FLOW TIME STEP  23 STRESS PERIOD   2
    15 TOTAL ITERATIONS
 
 SOLVING FOR HEAD 
 FLOW MODEL IS TRANSIENT
 FLOW MODEL CONTAINS CONSTANT-HEAD CELLS


 MAXIMUM STEPSIZE DURING WHICH ANY PARTICLE CANNOT MOVE MORE THAN ONE CELL
 = 0.1189    (WHEN MIN. R.F.=1)  AT K=   3, I=   2, J=  33

 MAXIMUM STEPSIZE WHICH MEETS STABILITY CRITERION OF THE ADVECTION TERM
 (FOR PURE FINITE-DIFFERENCE OPTION, MIXELM=0) 
 = 0.8150E-01(WHEN MIN. R.F.=1)  AT K=   3, I=   2, J=  32


 TOTAL NUMBER OF POINT SOURCES/SINKS PRESENT IN THE FLOW MODEL =   240

 MAXIMUM STEPSIZE WHICH MEETS STABILITY CRITERION OF THE SINK & SOURCE TERM
 = 0.1000E+31(WHEN MIN. R.F.=1)  AT K=   0, I=   0, J=   0

 MAXIMUM STEPSIZE WHICH MEETS STABILITY CRITERION OF THE DISPERSION TERM
 = 0.5614E-02(WHEN MIN. R.F.=1)  AT K=   3, I=   2, J=  32
     1 CALLS TO GCG PACKAGE FOR TRANSPORT TIME STEP   9 IN FLOW TIME STEP  23 STRESS PERIOD   2
    15 TOTAL ITERATIONS
 
 SOLVING FOR HEAD 
 FLOW MODEL IS TRANSIENT
 FLOW MODEL CONTAINS CONSTANT-HEAD CELLS


 MAXIMUM STEPSIZE DURING WHICH ANY PARTICLE CANNOT MOVE MORE THAN ONE CELL
 = 0.1189    (WHEN MIN. R.F.=1)  AT K=   3, I=   2, J=  33

 MAXIMUM STEPSIZE WHICH MEETS STABILITY CRITERION OF THE ADVECTION TERM
 (FOR PURE FINITE-DIFFERENCE OPTION, MIXELM=0) 
 = 0.8150E-01(WHEN MIN. R.F.=1)  AT K=   3, I=   2, J=  32


 TOTAL NUMBER OF POINT SOURCES/SINKS PRESENT IN THE FLOW MODEL =   240

 MAXIMUM STEPSIZE WHICH MEETS STABILITY CRITERION OF THE SINK & SOURCE TERM
 = 0.1000E+31(WHEN MIN. R.F.=1)  AT K=   0, I=   0, J=   0

 MAXIMUM STEPSIZE WHICH MEETS STABILITY CRITERION OF THE DISPERSION TERM
 = 0.5614E-02(WHEN MIN. R.F.=1)  AT K=   3, I=   2, J=  32
     1 CALLS TO GCG PACKAGE FOR TRANSPORT TIME STEP  10 IN FLOW TIME STEP  23 STRESS PERIOD   2
    15 TOTAL ITERATIONS



 >>>>>>>>>>>>>>>>>>>>>>>>>>>>>>>>>>>>>>>>>>>>>>>>>>>>>>>FOR COMPONENT NO. 01<<<<<<<<<<<<<<<<<<<<<<<<<<<<<<<<<<<<<<<<<<<<<<<<<<<<<<<


                                            -------------------------------------------
                                                      TRANSPORT STEP NO.   10
                                            -------------------------------------------

 TOTAL ELAPSED TIME SINCE BEGINNING OF SIMULATION =   23.89209    D   
 .....................................................................

                     CUMULATIVE MASS BUDGETS AT END OF TRANSPORT STEP   10, TIME STEP   23, STRESS PERIOD    2
                     ------------------------------------------------------------------------------------------

                                                             IN                           OUT
                                                      ----------------             ----------------
                               CONSTANT CONCENTRATION:    5423.096                   -1877.571    
                                        CONSTANT HEAD:    0.000000                    0.000000    
                               MASS STOR (FLOW MODEL):   0.1206221E-01              -0.3035371E-02
                                MASS STORAGE (SOLUTE):   0.5620034E-06               -3545.536    
                            ---------------------------------------------------------------------------
                                              [TOTAL]:    5423.108     KG            -5423.109     KG  

                                                          NET (IN - OUT):  -0.1432326E-02
                                                   DISCREPANCY (PERCENT):  -0.2641152E-04
 
 SOLVING FOR HEAD 
 FLOW MODEL IS TRANSIENT
 FLOW MODEL CONTAINS CONSTANT-HEAD CELLS


 MAXIMUM STEPSIZE DURING WHICH ANY PARTICLE CANNOT MOVE MORE THAN ONE CELL
 = 0.1189    (WHEN MIN. R.F.=1)  AT K=   3, I=   2, J=  33

 MAXIMUM STEPSIZE WHICH MEETS STABILITY CRITERION OF THE ADVECTION TERM
 (FOR PURE FINITE-DIFFERENCE OPTION, MIXELM=0) 
 = 0.8150E-01(WHEN MIN. R.F.=1)  AT K=   3, I=   2, J=  32


 TOTAL NUMBER OF POINT SOURCES/SINKS PRESENT IN THE FLOW MODEL =   240

 MAXIMUM STEPSIZE WHICH MEETS STABILITY CRITERION OF THE SINK & SOURCE TERM
 = 0.1000E+31(WHEN MIN. R.F.=1)  AT K=   0, I=   0, J=   0

 MAXIMUM STEPSIZE WHICH MEETS STABILITY CRITERION OF THE DISPERSION TERM
 = 0.5614E-02(WHEN MIN. R.F.=1)  AT K=   3, I=   2, J=  32
     1 CALLS TO GCG PACKAGE FOR TRANSPORT TIME STEP  11 IN FLOW TIME STEP  23 STRESS PERIOD   2
    15 TOTAL ITERATIONS
 
 SOLVING FOR HEAD 
 FLOW MODEL IS TRANSIENT
 FLOW MODEL CONTAINS CONSTANT-HEAD CELLS


 MAXIMUM STEPSIZE DURING WHICH ANY PARTICLE CANNOT MOVE MORE THAN ONE CELL
 = 0.1189    (WHEN MIN. R.F.=1)  AT K=   3, I=   2, J=  33

 MAXIMUM STEPSIZE WHICH MEETS STABILITY CRITERION OF THE ADVECTION TERM
 (FOR PURE FINITE-DIFFERENCE OPTION, MIXELM=0) 
 = 0.8150E-01(WHEN MIN. R.F.=1)  AT K=   3, I=   2, J=  32


 TOTAL NUMBER OF POINT SOURCES/SINKS PRESENT IN THE FLOW MODEL =   240

 MAXIMUM STEPSIZE WHICH MEETS STABILITY CRITERION OF THE SINK & SOURCE TERM
 = 0.1000E+31(WHEN MIN. R.F.=1)  AT K=   0, I=   0, J=   0

 MAXIMUM STEPSIZE WHICH MEETS STABILITY CRITERION OF THE DISPERSION TERM
 = 0.5614E-02(WHEN MIN. R.F.=1)  AT K=   3, I=   2, J=  32
     1 CALLS TO GCG PACKAGE FOR TRANSPORT TIME STEP  12 IN FLOW TIME STEP  23 STRESS PERIOD   2
     8 TOTAL ITERATIONS
  MAXIMUM CONCENTRATION CHANGES FOR EACH ITERATION:
  MAX. CHANGE LAYER,ROW,COL MAX. CHANGE LAYER,ROW,COL MAX. CHANGE LAYER,ROW,COL MAX. CHANGE LAYER,ROW,COL MAX. CHANGE LAYER,ROW,COL
 ------------------------------------------------------------------------------------------------------------------------------------
   0.3421E-03 ( 13,  2, 57)  0.5216E-04 (  6,  2, 60)  0.6917E-05 (  5,  2, 57)  0.3176E-05 (  3,  2, 33)  0.1395E-05 (  4,  2, 33)
   0.5349E-06 (  3,  2, 33)  0.1400E-06 (  2,  2, 33)  0.5091E-07 (  3,  2, 33)


                                          ================================================
                                                         FROM TIME =   24.000     TO    25.000    

 
 SOLVING FOR HEAD 
 FLOW MODEL IS TRANSIENT
 FLOW MODEL CONTAINS CONSTANT-HEAD CELLS


 MAXIMUM STEPSIZE DURING WHICH ANY PARTICLE CANNOT MOVE MORE THAN ONE CELL
 = 0.1189    (WHEN MIN. R.F.=1)  AT K=   3, I=   2, J=  33

 MAXIMUM STEPSIZE WHICH MEETS STABILITY CRITERION OF THE ADVECTION TERM
 (FOR PURE FINITE-DIFFERENCE OPTION, MIXELM=0) 
 = 0.8150E-01(WHEN MIN. R.F.=1)  AT K=   3, I=   2, J=  32


 TOTAL NUMBER OF POINT SOURCES/SINKS PRESENT IN THE FLOW MODEL =   240

 MAXIMUM STEPSIZE WHICH MEETS STABILITY CRITERION OF THE SINK & SOURCE TERM
 = 0.1000E+31(WHEN MIN. R.F.=1)  AT K=   0, I=   0, J=   0

 MAXIMUM STEPSIZE WHICH MEETS STABILITY CRITERION OF THE DISPERSION TERM
 = 0.5614E-02(WHEN MIN. R.F.=1)  AT K=   3, I=   2, J=  32


     1 CALLS TO GCG PACKAGE FOR TRANSPORT TIME STEP   1 IN FLOW TIME STEP  24 STRESS PERIOD   2
    15 TOTAL ITERATIONS

 NO OUTPUT CONTROL FOR STRESS PERIOD    2   TIME STEP  24
 
 SOLVING FOR HEAD 
 FLOW MODEL IS TRANSIENT
 FLOW MODEL CONTAINS CONSTANT-HEAD CELLS


 MAXIMUM STEPSIZE DURING WHICH ANY PARTICLE CANNOT MOVE MORE THAN ONE CELL
 = 0.1189    (WHEN MIN. R.F.=1)  AT K=   3, I=   2, J=  33

 MAXIMUM STEPSIZE WHICH MEETS STABILITY CRITERION OF THE ADVECTION TERM
 (FOR PURE FINITE-DIFFERENCE OPTION, MIXELM=0) 
 = 0.8150E-01(WHEN MIN. R.F.=1)  AT K=   3, I=   2, J=  32


 TOTAL NUMBER OF POINT SOURCES/SINKS PRESENT IN THE FLOW MODEL =   240

 MAXIMUM STEPSIZE WHICH MEETS STABILITY CRITERION OF THE SINK & SOURCE TERM
 = 0.1000E+31(WHEN MIN. R.F.=1)  AT K=   0, I=   0, J=   0

 MAXIMUM STEPSIZE WHICH MEETS STABILITY CRITERION OF THE DISPERSION TERM
 = 0.5614E-02(WHEN MIN. R.F.=1)  AT K=   3, I=   2, J=  32
     1 CALLS TO GCG PACKAGE FOR TRANSPORT TIME STEP   2 IN FLOW TIME STEP  24 STRESS PERIOD   2
    15 TOTAL ITERATIONS
 
 SOLVING FOR HEAD 
 FLOW MODEL IS TRANSIENT
 FLOW MODEL CONTAINS CONSTANT-HEAD CELLS


 MAXIMUM STEPSIZE DURING WHICH ANY PARTICLE CANNOT MOVE MORE THAN ONE CELL
 = 0.1189    (WHEN MIN. R.F.=1)  AT K=   3, I=   2, J=  33

 MAXIMUM STEPSIZE WHICH MEETS STABILITY CRITERION OF THE ADVECTION TERM
 (FOR PURE FINITE-DIFFERENCE OPTION, MIXELM=0) 
 = 0.8150E-01(WHEN MIN. R.F.=1)  AT K=   3, I=   2, J=  32


 TOTAL NUMBER OF POINT SOURCES/SINKS PRESENT IN THE FLOW MODEL =   240

 MAXIMUM STEPSIZE WHICH MEETS STABILITY CRITERION OF THE SINK & SOURCE TERM
 = 0.1000E+31(WHEN MIN. R.F.=1)  AT K=   0, I=   0, J=   0

 MAXIMUM STEPSIZE WHICH MEETS STABILITY CRITERION OF THE DISPERSION TERM
 = 0.5614E-02(WHEN MIN. R.F.=1)  AT K=   3, I=   2, J=  32
     1 CALLS TO GCG PACKAGE FOR TRANSPORT TIME STEP   3 IN FLOW TIME STEP  24 STRESS PERIOD   2
    15 TOTAL ITERATIONS
 
 SOLVING FOR HEAD 
 FLOW MODEL IS TRANSIENT
 FLOW MODEL CONTAINS CONSTANT-HEAD CELLS


 MAXIMUM STEPSIZE DURING WHICH ANY PARTICLE CANNOT MOVE MORE THAN ONE CELL
 = 0.1189    (WHEN MIN. R.F.=1)  AT K=   3, I=   2, J=  33

 MAXIMUM STEPSIZE WHICH MEETS STABILITY CRITERION OF THE ADVECTION TERM
 (FOR PURE FINITE-DIFFERENCE OPTION, MIXELM=0) 
 = 0.8150E-01(WHEN MIN. R.F.=1)  AT K=   3, I=   2, J=  32


 TOTAL NUMBER OF POINT SOURCES/SINKS PRESENT IN THE FLOW MODEL =   240

 MAXIMUM STEPSIZE WHICH MEETS STABILITY CRITERION OF THE SINK & SOURCE TERM
 = 0.1000E+31(WHEN MIN. R.F.=1)  AT K=   0, I=   0, J=   0

 MAXIMUM STEPSIZE WHICH MEETS STABILITY CRITERION OF THE DISPERSION TERM
 = 0.5614E-02(WHEN MIN. R.F.=1)  AT K=   3, I=   2, J=  32
     1 CALLS TO GCG PACKAGE FOR TRANSPORT TIME STEP   4 IN FLOW TIME STEP  24 STRESS PERIOD   2
    15 TOTAL ITERATIONS
 
 SOLVING FOR HEAD 
 FLOW MODEL IS TRANSIENT
 FLOW MODEL CONTAINS CONSTANT-HEAD CELLS


 MAXIMUM STEPSIZE DURING WHICH ANY PARTICLE CANNOT MOVE MORE THAN ONE CELL
 = 0.1189    (WHEN MIN. R.F.=1)  AT K=   3, I=   2, J=  33

 MAXIMUM STEPSIZE WHICH MEETS STABILITY CRITERION OF THE ADVECTION TERM
 (FOR PURE FINITE-DIFFERENCE OPTION, MIXELM=0) 
 = 0.8150E-01(WHEN MIN. R.F.=1)  AT K=   3, I=   2, J=  32


 TOTAL NUMBER OF POINT SOURCES/SINKS PRESENT IN THE FLOW MODEL =   240

 MAXIMUM STEPSIZE WHICH MEETS STABILITY CRITERION OF THE SINK & SOURCE TERM
 = 0.1000E+31(WHEN MIN. R.F.=1)  AT K=   0, I=   0, J=   0

 MAXIMUM STEPSIZE WHICH MEETS STABILITY CRITERION OF THE DISPERSION TERM
 = 0.5614E-02(WHEN MIN. R.F.=1)  AT K=   3, I=   2, J=  32
     1 CALLS TO GCG PACKAGE FOR TRANSPORT TIME STEP   5 IN FLOW TIME STEP  24 STRESS PERIOD   2
    15 TOTAL ITERATIONS
 
 SOLVING FOR HEAD 
 FLOW MODEL IS TRANSIENT
 FLOW MODEL CONTAINS CONSTANT-HEAD CELLS


 MAXIMUM STEPSIZE DURING WHICH ANY PARTICLE CANNOT MOVE MORE THAN ONE CELL
 = 0.1189    (WHEN MIN. R.F.=1)  AT K=   3, I=   2, J=  33

 MAXIMUM STEPSIZE WHICH MEETS STABILITY CRITERION OF THE ADVECTION TERM
 (FOR PURE FINITE-DIFFERENCE OPTION, MIXELM=0) 
 = 0.8150E-01(WHEN MIN. R.F.=1)  AT K=   3, I=   2, J=  32


 TOTAL NUMBER OF POINT SOURCES/SINKS PRESENT IN THE FLOW MODEL =   240

 MAXIMUM STEPSIZE WHICH MEETS STABILITY CRITERION OF THE SINK & SOURCE TERM
 = 0.1000E+31(WHEN MIN. R.F.=1)  AT K=   0, I=   0, J=   0

 MAXIMUM STEPSIZE WHICH MEETS STABILITY CRITERION OF THE DISPERSION TERM
 = 0.5614E-02(WHEN MIN. R.F.=1)  AT K=   3, I=   2, J=  32
     1 CALLS TO GCG PACKAGE FOR TRANSPORT TIME STEP   6 IN FLOW TIME STEP  24 STRESS PERIOD   2
    15 TOTAL ITERATIONS
 
 SOLVING FOR HEAD 
 FLOW MODEL IS TRANSIENT
 FLOW MODEL CONTAINS CONSTANT-HEAD CELLS


 MAXIMUM STEPSIZE DURING WHICH ANY PARTICLE CANNOT MOVE MORE THAN ONE CELL
 = 0.1189    (WHEN MIN. R.F.=1)  AT K=   3, I=   2, J=  33

 MAXIMUM STEPSIZE WHICH MEETS STABILITY CRITERION OF THE ADVECTION TERM
 (FOR PURE FINITE-DIFFERENCE OPTION, MIXELM=0) 
 = 0.8150E-01(WHEN MIN. R.F.=1)  AT K=   3, I=   2, J=  32


 TOTAL NUMBER OF POINT SOURCES/SINKS PRESENT IN THE FLOW MODEL =   240

 MAXIMUM STEPSIZE WHICH MEETS STABILITY CRITERION OF THE SINK & SOURCE TERM
 = 0.1000E+31(WHEN MIN. R.F.=1)  AT K=   0, I=   0, J=   0

 MAXIMUM STEPSIZE WHICH MEETS STABILITY CRITERION OF THE DISPERSION TERM
 = 0.5614E-02(WHEN MIN. R.F.=1)  AT K=   3, I=   2, J=  32
     1 CALLS TO GCG PACKAGE FOR TRANSPORT TIME STEP   7 IN FLOW TIME STEP  24 STRESS PERIOD   2
    15 TOTAL ITERATIONS
 
 SOLVING FOR HEAD 
 FLOW MODEL IS TRANSIENT
 FLOW MODEL CONTAINS CONSTANT-HEAD CELLS


 MAXIMUM STEPSIZE DURING WHICH ANY PARTICLE CANNOT MOVE MORE THAN ONE CELL
 = 0.1189    (WHEN MIN. R.F.=1)  AT K=   3, I=   2, J=  33

 MAXIMUM STEPSIZE WHICH MEETS STABILITY CRITERION OF THE ADVECTION TERM
 (FOR PURE FINITE-DIFFERENCE OPTION, MIXELM=0) 
 = 0.8150E-01(WHEN MIN. R.F.=1)  AT K=   3, I=   2, J=  32


 TOTAL NUMBER OF POINT SOURCES/SINKS PRESENT IN THE FLOW MODEL =   240

 MAXIMUM STEPSIZE WHICH MEETS STABILITY CRITERION OF THE SINK & SOURCE TERM
 = 0.1000E+31(WHEN MIN. R.F.=1)  AT K=   0, I=   0, J=   0

 MAXIMUM STEPSIZE WHICH MEETS STABILITY CRITERION OF THE DISPERSION TERM
 = 0.5614E-02(WHEN MIN. R.F.=1)  AT K=   3, I=   2, J=  32
     1 CALLS TO GCG PACKAGE FOR TRANSPORT TIME STEP   8 IN FLOW TIME STEP  24 STRESS PERIOD   2
    15 TOTAL ITERATIONS
 
 SOLVING FOR HEAD 
 FLOW MODEL IS TRANSIENT
 FLOW MODEL CONTAINS CONSTANT-HEAD CELLS


 MAXIMUM STEPSIZE DURING WHICH ANY PARTICLE CANNOT MOVE MORE THAN ONE CELL
 = 0.1189    (WHEN MIN. R.F.=1)  AT K=   3, I=   2, J=  33

 MAXIMUM STEPSIZE WHICH MEETS STABILITY CRITERION OF THE ADVECTION TERM
 (FOR PURE FINITE-DIFFERENCE OPTION, MIXELM=0) 
 = 0.8150E-01(WHEN MIN. R.F.=1)  AT K=   3, I=   2, J=  32


 TOTAL NUMBER OF POINT SOURCES/SINKS PRESENT IN THE FLOW MODEL =   240

 MAXIMUM STEPSIZE WHICH MEETS STABILITY CRITERION OF THE SINK & SOURCE TERM
 = 0.1000E+31(WHEN MIN. R.F.=1)  AT K=   0, I=   0, J=   0

 MAXIMUM STEPSIZE WHICH MEETS STABILITY CRITERION OF THE DISPERSION TERM
 = 0.5614E-02(WHEN MIN. R.F.=1)  AT K=   3, I=   2, J=  32
     1 CALLS TO GCG PACKAGE FOR TRANSPORT TIME STEP   9 IN FLOW TIME STEP  24 STRESS PERIOD   2
    15 TOTAL ITERATIONS
 
 SOLVING FOR HEAD 
 FLOW MODEL IS TRANSIENT
 FLOW MODEL CONTAINS CONSTANT-HEAD CELLS


 MAXIMUM STEPSIZE DURING WHICH ANY PARTICLE CANNOT MOVE MORE THAN ONE CELL
 = 0.1189    (WHEN MIN. R.F.=1)  AT K=   3, I=   2, J=  33

 MAXIMUM STEPSIZE WHICH MEETS STABILITY CRITERION OF THE ADVECTION TERM
 (FOR PURE FINITE-DIFFERENCE OPTION, MIXELM=0) 
 = 0.8150E-01(WHEN MIN. R.F.=1)  AT K=   3, I=   2, J=  32


 TOTAL NUMBER OF POINT SOURCES/SINKS PRESENT IN THE FLOW MODEL =   240

 MAXIMUM STEPSIZE WHICH MEETS STABILITY CRITERION OF THE SINK & SOURCE TERM
 = 0.1000E+31(WHEN MIN. R.F.=1)  AT K=   0, I=   0, J=   0

 MAXIMUM STEPSIZE WHICH MEETS STABILITY CRITERION OF THE DISPERSION TERM
 = 0.5614E-02(WHEN MIN. R.F.=1)  AT K=   3, I=   2, J=  32
     1 CALLS TO GCG PACKAGE FOR TRANSPORT TIME STEP  10 IN FLOW TIME STEP  24 STRESS PERIOD   2
    15 TOTAL ITERATIONS



 >>>>>>>>>>>>>>>>>>>>>>>>>>>>>>>>>>>>>>>>>>>>>>>>>>>>>>>FOR COMPONENT NO. 01<<<<<<<<<<<<<<<<<<<<<<<<<<<<<<<<<<<<<<<<<<<<<<<<<<<<<<<


                                            -------------------------------------------
                                                      TRANSPORT STEP NO.   10
                                            -------------------------------------------

 TOTAL ELAPSED TIME SINCE BEGINNING OF SIMULATION =   24.89202    D   
 .....................................................................

                     CUMULATIVE MASS BUDGETS AT END OF TRANSPORT STEP   10, TIME STEP   24, STRESS PERIOD    2
                     ------------------------------------------------------------------------------------------

                                                             IN                           OUT
                                                      ----------------             ----------------
                               CONSTANT CONCENTRATION:    5562.702                   -1967.619    
                                        CONSTANT HEAD:    0.000000                    0.000000    
                               MASS STOR (FLOW MODEL):   0.1208078E-01              -0.3054777E-02
                                MASS STORAGE (SOLUTE):   0.5620034E-06               -3595.093    
                            ---------------------------------------------------------------------------
                                              [TOTAL]:    5562.714     KG            -5562.715     KG  

                                                          NET (IN - OUT):  -0.1520802E-02
                                                   DISCREPANCY (PERCENT):  -0.2733920E-04
 
 SOLVING FOR HEAD 
 FLOW MODEL IS TRANSIENT
 FLOW MODEL CONTAINS CONSTANT-HEAD CELLS


 MAXIMUM STEPSIZE DURING WHICH ANY PARTICLE CANNOT MOVE MORE THAN ONE CELL
 = 0.1189    (WHEN MIN. R.F.=1)  AT K=   3, I=   2, J=  33

 MAXIMUM STEPSIZE WHICH MEETS STABILITY CRITERION OF THE ADVECTION TERM
 (FOR PURE FINITE-DIFFERENCE OPTION, MIXELM=0) 
 = 0.8150E-01(WHEN MIN. R.F.=1)  AT K=   3, I=   2, J=  32


 TOTAL NUMBER OF POINT SOURCES/SINKS PRESENT IN THE FLOW MODEL =   240

 MAXIMUM STEPSIZE WHICH MEETS STABILITY CRITERION OF THE SINK & SOURCE TERM
 = 0.1000E+31(WHEN MIN. R.F.=1)  AT K=   0, I=   0, J=   0

 MAXIMUM STEPSIZE WHICH MEETS STABILITY CRITERION OF THE DISPERSION TERM
 = 0.5614E-02(WHEN MIN. R.F.=1)  AT K=   3, I=   2, J=  32
     1 CALLS TO GCG PACKAGE FOR TRANSPORT TIME STEP  11 IN FLOW TIME STEP  24 STRESS PERIOD   2
    15 TOTAL ITERATIONS
 
 SOLVING FOR HEAD 
 FLOW MODEL IS TRANSIENT
 FLOW MODEL CONTAINS CONSTANT-HEAD CELLS


 MAXIMUM STEPSIZE DURING WHICH ANY PARTICLE CANNOT MOVE MORE THAN ONE CELL
 = 0.1189    (WHEN MIN. R.F.=1)  AT K=   3, I=   2, J=  33

 MAXIMUM STEPSIZE WHICH MEETS STABILITY CRITERION OF THE ADVECTION TERM
 (FOR PURE FINITE-DIFFERENCE OPTION, MIXELM=0) 
 = 0.8150E-01(WHEN MIN. R.F.=1)  AT K=   3, I=   2, J=  32


 TOTAL NUMBER OF POINT SOURCES/SINKS PRESENT IN THE FLOW MODEL =   240

 MAXIMUM STEPSIZE WHICH MEETS STABILITY CRITERION OF THE SINK & SOURCE TERM
 = 0.1000E+31(WHEN MIN. R.F.=1)  AT K=   0, I=   0, J=   0

 MAXIMUM STEPSIZE WHICH MEETS STABILITY CRITERION OF THE DISPERSION TERM
 = 0.5614E-02(WHEN MIN. R.F.=1)  AT K=   3, I=   2, J=  32
     1 CALLS TO GCG PACKAGE FOR TRANSPORT TIME STEP  12 IN FLOW TIME STEP  24 STRESS PERIOD   2
     8 TOTAL ITERATIONS
  MAXIMUM CONCENTRATION CHANGES FOR EACH ITERATION:
  MAX. CHANGE LAYER,ROW,COL MAX. CHANGE LAYER,ROW,COL MAX. CHANGE LAYER,ROW,COL MAX. CHANGE LAYER,ROW,COL MAX. CHANGE LAYER,ROW,COL
 ------------------------------------------------------------------------------------------------------------------------------------
   0.3316E-03 ( 13,  2, 57)  0.4933E-04 (  6,  2, 60)  0.6584E-05 (  5,  2, 57)  0.2932E-05 (  3,  2, 33)  0.1292E-05 (  4,  2, 33)
   0.4978E-06 (  3,  2, 33)  0.1306E-06 (  2,  2, 33)  0.4761E-07 (  3,  2, 33)


                                          ================================================
                                                         FROM TIME =   25.000     TO    26.000    

 
 SOLVING FOR HEAD 
 FLOW MODEL IS TRANSIENT
 FLOW MODEL CONTAINS CONSTANT-HEAD CELLS


 MAXIMUM STEPSIZE DURING WHICH ANY PARTICLE CANNOT MOVE MORE THAN ONE CELL
 = 0.1189    (WHEN MIN. R.F.=1)  AT K=   3, I=   2, J=  33

 MAXIMUM STEPSIZE WHICH MEETS STABILITY CRITERION OF THE ADVECTION TERM
 (FOR PURE FINITE-DIFFERENCE OPTION, MIXELM=0) 
 = 0.8150E-01(WHEN MIN. R.F.=1)  AT K=   3, I=   2, J=  32


 TOTAL NUMBER OF POINT SOURCES/SINKS PRESENT IN THE FLOW MODEL =   240

 MAXIMUM STEPSIZE WHICH MEETS STABILITY CRITERION OF THE SINK & SOURCE TERM
 = 0.1000E+31(WHEN MIN. R.F.=1)  AT K=   0, I=   0, J=   0

 MAXIMUM STEPSIZE WHICH MEETS STABILITY CRITERION OF THE DISPERSION TERM
 = 0.5614E-02(WHEN MIN. R.F.=1)  AT K=   3, I=   2, J=  32


     1 CALLS TO GCG PACKAGE FOR TRANSPORT TIME STEP   1 IN FLOW TIME STEP  25 STRESS PERIOD   2
    15 TOTAL ITERATIONS

 NO OUTPUT CONTROL FOR STRESS PERIOD    2   TIME STEP  25
 
 SOLVING FOR HEAD 
 FLOW MODEL IS TRANSIENT
 FLOW MODEL CONTAINS CONSTANT-HEAD CELLS


 MAXIMUM STEPSIZE DURING WHICH ANY PARTICLE CANNOT MOVE MORE THAN ONE CELL
 = 0.1189    (WHEN MIN. R.F.=1)  AT K=   3, I=   2, J=  33

 MAXIMUM STEPSIZE WHICH MEETS STABILITY CRITERION OF THE ADVECTION TERM
 (FOR PURE FINITE-DIFFERENCE OPTION, MIXELM=0) 
 = 0.8150E-01(WHEN MIN. R.F.=1)  AT K=   3, I=   2, J=  32


 TOTAL NUMBER OF POINT SOURCES/SINKS PRESENT IN THE FLOW MODEL =   240

 MAXIMUM STEPSIZE WHICH MEETS STABILITY CRITERION OF THE SINK & SOURCE TERM
 = 0.1000E+31(WHEN MIN. R.F.=1)  AT K=   0, I=   0, J=   0

 MAXIMUM STEPSIZE WHICH MEETS STABILITY CRITERION OF THE DISPERSION TERM
 = 0.5614E-02(WHEN MIN. R.F.=1)  AT K=   3, I=   2, J=  32
     1 CALLS TO GCG PACKAGE FOR TRANSPORT TIME STEP   2 IN FLOW TIME STEP  25 STRESS PERIOD   2
    15 TOTAL ITERATIONS
 
 SOLVING FOR HEAD 
 FLOW MODEL IS TRANSIENT
 FLOW MODEL CONTAINS CONSTANT-HEAD CELLS


 MAXIMUM STEPSIZE DURING WHICH ANY PARTICLE CANNOT MOVE MORE THAN ONE CELL
 = 0.1189    (WHEN MIN. R.F.=1)  AT K=   3, I=   2, J=  33

 MAXIMUM STEPSIZE WHICH MEETS STABILITY CRITERION OF THE ADVECTION TERM
 (FOR PURE FINITE-DIFFERENCE OPTION, MIXELM=0) 
 = 0.8150E-01(WHEN MIN. R.F.=1)  AT K=   3, I=   2, J=  32


 TOTAL NUMBER OF POINT SOURCES/SINKS PRESENT IN THE FLOW MODEL =   240

 MAXIMUM STEPSIZE WHICH MEETS STABILITY CRITERION OF THE SINK & SOURCE TERM
 = 0.1000E+31(WHEN MIN. R.F.=1)  AT K=   0, I=   0, J=   0

 MAXIMUM STEPSIZE WHICH MEETS STABILITY CRITERION OF THE DISPERSION TERM
 = 0.5614E-02(WHEN MIN. R.F.=1)  AT K=   3, I=   2, J=  32
     1 CALLS TO GCG PACKAGE FOR TRANSPORT TIME STEP   3 IN FLOW TIME STEP  25 STRESS PERIOD   2
    15 TOTAL ITERATIONS
 
 SOLVING FOR HEAD 
 FLOW MODEL IS TRANSIENT
 FLOW MODEL CONTAINS CONSTANT-HEAD CELLS


 MAXIMUM STEPSIZE DURING WHICH ANY PARTICLE CANNOT MOVE MORE THAN ONE CELL
 = 0.1189    (WHEN MIN. R.F.=1)  AT K=   3, I=   2, J=  33

 MAXIMUM STEPSIZE WHICH MEETS STABILITY CRITERION OF THE ADVECTION TERM
 (FOR PURE FINITE-DIFFERENCE OPTION, MIXELM=0) 
 = 0.8150E-01(WHEN MIN. R.F.=1)  AT K=   3, I=   2, J=  32


 TOTAL NUMBER OF POINT SOURCES/SINKS PRESENT IN THE FLOW MODEL =   240

 MAXIMUM STEPSIZE WHICH MEETS STABILITY CRITERION OF THE SINK & SOURCE TERM
 = 0.1000E+31(WHEN MIN. R.F.=1)  AT K=   0, I=   0, J=   0

 MAXIMUM STEPSIZE WHICH MEETS STABILITY CRITERION OF THE DISPERSION TERM
 = 0.5614E-02(WHEN MIN. R.F.=1)  AT K=   3, I=   2, J=  32
     1 CALLS TO GCG PACKAGE FOR TRANSPORT TIME STEP   4 IN FLOW TIME STEP  25 STRESS PERIOD   2
    15 TOTAL ITERATIONS
 
 SOLVING FOR HEAD 
 FLOW MODEL IS TRANSIENT
 FLOW MODEL CONTAINS CONSTANT-HEAD CELLS


 MAXIMUM STEPSIZE DURING WHICH ANY PARTICLE CANNOT MOVE MORE THAN ONE CELL
 = 0.1189    (WHEN MIN. R.F.=1)  AT K=   3, I=   2, J=  33

 MAXIMUM STEPSIZE WHICH MEETS STABILITY CRITERION OF THE ADVECTION TERM
 (FOR PURE FINITE-DIFFERENCE OPTION, MIXELM=0) 
 = 0.8150E-01(WHEN MIN. R.F.=1)  AT K=   3, I=   2, J=  32


 TOTAL NUMBER OF POINT SOURCES/SINKS PRESENT IN THE FLOW MODEL =   240

 MAXIMUM STEPSIZE WHICH MEETS STABILITY CRITERION OF THE SINK & SOURCE TERM
 = 0.1000E+31(WHEN MIN. R.F.=1)  AT K=   0, I=   0, J=   0

 MAXIMUM STEPSIZE WHICH MEETS STABILITY CRITERION OF THE DISPERSION TERM
 = 0.5614E-02(WHEN MIN. R.F.=1)  AT K=   3, I=   2, J=  32
     1 CALLS TO GCG PACKAGE FOR TRANSPORT TIME STEP   5 IN FLOW TIME STEP  25 STRESS PERIOD   2
    15 TOTAL ITERATIONS
 
 SOLVING FOR HEAD 
 FLOW MODEL IS TRANSIENT
 FLOW MODEL CONTAINS CONSTANT-HEAD CELLS


 MAXIMUM STEPSIZE DURING WHICH ANY PARTICLE CANNOT MOVE MORE THAN ONE CELL
 = 0.1189    (WHEN MIN. R.F.=1)  AT K=   3, I=   2, J=  33

 MAXIMUM STEPSIZE WHICH MEETS STABILITY CRITERION OF THE ADVECTION TERM
 (FOR PURE FINITE-DIFFERENCE OPTION, MIXELM=0) 
 = 0.8150E-01(WHEN MIN. R.F.=1)  AT K=   3, I=   2, J=  32


 TOTAL NUMBER OF POINT SOURCES/SINKS PRESENT IN THE FLOW MODEL =   240

 MAXIMUM STEPSIZE WHICH MEETS STABILITY CRITERION OF THE SINK & SOURCE TERM
 = 0.1000E+31(WHEN MIN. R.F.=1)  AT K=   0, I=   0, J=   0

 MAXIMUM STEPSIZE WHICH MEETS STABILITY CRITERION OF THE DISPERSION TERM
 = 0.5614E-02(WHEN MIN. R.F.=1)  AT K=   3, I=   2, J=  32
     1 CALLS TO GCG PACKAGE FOR TRANSPORT TIME STEP   6 IN FLOW TIME STEP  25 STRESS PERIOD   2
    15 TOTAL ITERATIONS
 
 SOLVING FOR HEAD 
 FLOW MODEL IS TRANSIENT
 FLOW MODEL CONTAINS CONSTANT-HEAD CELLS


 MAXIMUM STEPSIZE DURING WHICH ANY PARTICLE CANNOT MOVE MORE THAN ONE CELL
 = 0.1189    (WHEN MIN. R.F.=1)  AT K=   3, I=   2, J=  33

 MAXIMUM STEPSIZE WHICH MEETS STABILITY CRITERION OF THE ADVECTION TERM
 (FOR PURE FINITE-DIFFERENCE OPTION, MIXELM=0) 
 = 0.8149E-01(WHEN MIN. R.F.=1)  AT K=   3, I=   2, J=  32


 TOTAL NUMBER OF POINT SOURCES/SINKS PRESENT IN THE FLOW MODEL =   240

 MAXIMUM STEPSIZE WHICH MEETS STABILITY CRITERION OF THE SINK & SOURCE TERM
 = 0.1000E+31(WHEN MIN. R.F.=1)  AT K=   0, I=   0, J=   0

 MAXIMUM STEPSIZE WHICH MEETS STABILITY CRITERION OF THE DISPERSION TERM
 = 0.5614E-02(WHEN MIN. R.F.=1)  AT K=   3, I=   2, J=  32
     1 CALLS TO GCG PACKAGE FOR TRANSPORT TIME STEP   7 IN FLOW TIME STEP  25 STRESS PERIOD   2
    15 TOTAL ITERATIONS
 
 SOLVING FOR HEAD 
 FLOW MODEL IS TRANSIENT
 FLOW MODEL CONTAINS CONSTANT-HEAD CELLS


 MAXIMUM STEPSIZE DURING WHICH ANY PARTICLE CANNOT MOVE MORE THAN ONE CELL
 = 0.1189    (WHEN MIN. R.F.=1)  AT K=   3, I=   2, J=  33

 MAXIMUM STEPSIZE WHICH MEETS STABILITY CRITERION OF THE ADVECTION TERM
 (FOR PURE FINITE-DIFFERENCE OPTION, MIXELM=0) 
 = 0.8149E-01(WHEN MIN. R.F.=1)  AT K=   3, I=   2, J=  32


 TOTAL NUMBER OF POINT SOURCES/SINKS PRESENT IN THE FLOW MODEL =   240

 MAXIMUM STEPSIZE WHICH MEETS STABILITY CRITERION OF THE SINK & SOURCE TERM
 = 0.1000E+31(WHEN MIN. R.F.=1)  AT K=   0, I=   0, J=   0

 MAXIMUM STEPSIZE WHICH MEETS STABILITY CRITERION OF THE DISPERSION TERM
 = 0.5614E-02(WHEN MIN. R.F.=1)  AT K=   3, I=   2, J=  32
     1 CALLS TO GCG PACKAGE FOR TRANSPORT TIME STEP   8 IN FLOW TIME STEP  25 STRESS PERIOD   2
    15 TOTAL ITERATIONS
 
 SOLVING FOR HEAD 
 FLOW MODEL IS TRANSIENT
 FLOW MODEL CONTAINS CONSTANT-HEAD CELLS


 MAXIMUM STEPSIZE DURING WHICH ANY PARTICLE CANNOT MOVE MORE THAN ONE CELL
 = 0.1189    (WHEN MIN. R.F.=1)  AT K=   3, I=   2, J=  33

 MAXIMUM STEPSIZE WHICH MEETS STABILITY CRITERION OF THE ADVECTION TERM
 (FOR PURE FINITE-DIFFERENCE OPTION, MIXELM=0) 
 = 0.8149E-01(WHEN MIN. R.F.=1)  AT K=   3, I=   2, J=  32


 TOTAL NUMBER OF POINT SOURCES/SINKS PRESENT IN THE FLOW MODEL =   240

 MAXIMUM STEPSIZE WHICH MEETS STABILITY CRITERION OF THE SINK & SOURCE TERM
 = 0.1000E+31(WHEN MIN. R.F.=1)  AT K=   0, I=   0, J=   0

 MAXIMUM STEPSIZE WHICH MEETS STABILITY CRITERION OF THE DISPERSION TERM
 = 0.5614E-02(WHEN MIN. R.F.=1)  AT K=   3, I=   2, J=  32
     1 CALLS TO GCG PACKAGE FOR TRANSPORT TIME STEP   9 IN FLOW TIME STEP  25 STRESS PERIOD   2
    15 TOTAL ITERATIONS
 
 SOLVING FOR HEAD 
 FLOW MODEL IS TRANSIENT
 FLOW MODEL CONTAINS CONSTANT-HEAD CELLS


 MAXIMUM STEPSIZE DURING WHICH ANY PARTICLE CANNOT MOVE MORE THAN ONE CELL
 = 0.1189    (WHEN MIN. R.F.=1)  AT K=   3, I=   2, J=  33

 MAXIMUM STEPSIZE WHICH MEETS STABILITY CRITERION OF THE ADVECTION TERM
 (FOR PURE FINITE-DIFFERENCE OPTION, MIXELM=0) 
 = 0.8149E-01(WHEN MIN. R.F.=1)  AT K=   3, I=   2, J=  32


 TOTAL NUMBER OF POINT SOURCES/SINKS PRESENT IN THE FLOW MODEL =   240

 MAXIMUM STEPSIZE WHICH MEETS STABILITY CRITERION OF THE SINK & SOURCE TERM
 = 0.1000E+31(WHEN MIN. R.F.=1)  AT K=   0, I=   0, J=   0

 MAXIMUM STEPSIZE WHICH MEETS STABILITY CRITERION OF THE DISPERSION TERM
 = 0.5614E-02(WHEN MIN. R.F.=1)  AT K=   3, I=   2, J=  32
     1 CALLS TO GCG PACKAGE FOR TRANSPORT TIME STEP  10 IN FLOW TIME STEP  25 STRESS PERIOD   2
    15 TOTAL ITERATIONS



 >>>>>>>>>>>>>>>>>>>>>>>>>>>>>>>>>>>>>>>>>>>>>>>>>>>>>>>FOR COMPONENT NO. 01<<<<<<<<<<<<<<<<<<<<<<<<<<<<<<<<<<<<<<<<<<<<<<<<<<<<<<<


                                            -------------------------------------------
                                                      TRANSPORT STEP NO.   10
                                            -------------------------------------------

 TOTAL ELAPSED TIME SINCE BEGINNING OF SIMULATION =   25.89196    D   
 .....................................................................

                     CUMULATIVE MASS BUDGETS AT END OF TRANSPORT STEP   10, TIME STEP   25, STRESS PERIOD    2
                     ------------------------------------------------------------------------------------------

                                                             IN                           OUT
                                                      ----------------             ----------------
                               CONSTANT CONCENTRATION:    5700.262                   -2057.842    
                                        CONSTANT HEAD:    0.000000                    0.000000    
                               MASS STOR (FLOW MODEL):   0.1209961E-01              -0.3072751E-02
                                MASS STORAGE (SOLUTE):   0.5620034E-06               -3642.430    
                            ---------------------------------------------------------------------------
                                              [TOTAL]:    5700.274     KG            -5700.275     KG  

                                                          NET (IN - OUT):  -0.1604163E-02
                                                   DISCREPANCY (PERCENT):  -0.2814186E-04
 
 SOLVING FOR HEAD 
 FLOW MODEL IS TRANSIENT
 FLOW MODEL CONTAINS CONSTANT-HEAD CELLS


 MAXIMUM STEPSIZE DURING WHICH ANY PARTICLE CANNOT MOVE MORE THAN ONE CELL
 = 0.1189    (WHEN MIN. R.F.=1)  AT K=   3, I=   2, J=  33

 MAXIMUM STEPSIZE WHICH MEETS STABILITY CRITERION OF THE ADVECTION TERM
 (FOR PURE FINITE-DIFFERENCE OPTION, MIXELM=0) 
 = 0.8149E-01(WHEN MIN. R.F.=1)  AT K=   3, I=   2, J=  32


 TOTAL NUMBER OF POINT SOURCES/SINKS PRESENT IN THE FLOW MODEL =   240

 MAXIMUM STEPSIZE WHICH MEETS STABILITY CRITERION OF THE SINK & SOURCE TERM
 = 0.1000E+31(WHEN MIN. R.F.=1)  AT K=   0, I=   0, J=   0

 MAXIMUM STEPSIZE WHICH MEETS STABILITY CRITERION OF THE DISPERSION TERM
 = 0.5614E-02(WHEN MIN. R.F.=1)  AT K=   3, I=   2, J=  32
     1 CALLS TO GCG PACKAGE FOR TRANSPORT TIME STEP  11 IN FLOW TIME STEP  25 STRESS PERIOD   2
    15 TOTAL ITERATIONS
 
 SOLVING FOR HEAD 
 FLOW MODEL IS TRANSIENT
 FLOW MODEL CONTAINS CONSTANT-HEAD CELLS


 MAXIMUM STEPSIZE DURING WHICH ANY PARTICLE CANNOT MOVE MORE THAN ONE CELL
 = 0.1189    (WHEN MIN. R.F.=1)  AT K=   3, I=   2, J=  33

 MAXIMUM STEPSIZE WHICH MEETS STABILITY CRITERION OF THE ADVECTION TERM
 (FOR PURE FINITE-DIFFERENCE OPTION, MIXELM=0) 
 = 0.8149E-01(WHEN MIN. R.F.=1)  AT K=   3, I=   2, J=  32


 TOTAL NUMBER OF POINT SOURCES/SINKS PRESENT IN THE FLOW MODEL =   240

 MAXIMUM STEPSIZE WHICH MEETS STABILITY CRITERION OF THE SINK & SOURCE TERM
 = 0.1000E+31(WHEN MIN. R.F.=1)  AT K=   0, I=   0, J=   0

 MAXIMUM STEPSIZE WHICH MEETS STABILITY CRITERION OF THE DISPERSION TERM
 = 0.5613E-02(WHEN MIN. R.F.=1)  AT K=   3, I=   2, J=  32
     1 CALLS TO GCG PACKAGE FOR TRANSPORT TIME STEP  12 IN FLOW TIME STEP  25 STRESS PERIOD   2
     8 TOTAL ITERATIONS
  MAXIMUM CONCENTRATION CHANGES FOR EACH ITERATION:
  MAX. CHANGE LAYER,ROW,COL MAX. CHANGE LAYER,ROW,COL MAX. CHANGE LAYER,ROW,COL MAX. CHANGE LAYER,ROW,COL MAX. CHANGE LAYER,ROW,COL
 ------------------------------------------------------------------------------------------------------------------------------------
   0.3215E-03 ( 13,  2, 57)  0.4670E-04 (  6,  2, 60)  0.6271E-05 (  5,  2, 57)  0.2712E-05 (  3,  2, 33)  0.1199E-05 (  4,  2, 33)
   0.4641E-06 (  3,  2, 33)  0.1221E-06 (  2,  2, 33)  0.4459E-07 (  3,  2, 33)


                                          ================================================
                                                         FROM TIME =   26.000     TO    27.000    

 
 SOLVING FOR HEAD 
 FLOW MODEL IS TRANSIENT
 FLOW MODEL CONTAINS CONSTANT-HEAD CELLS


 MAXIMUM STEPSIZE DURING WHICH ANY PARTICLE CANNOT MOVE MORE THAN ONE CELL
 = 0.1189    (WHEN MIN. R.F.=1)  AT K=   3, I=   2, J=  33

 MAXIMUM STEPSIZE WHICH MEETS STABILITY CRITERION OF THE ADVECTION TERM
 (FOR PURE FINITE-DIFFERENCE OPTION, MIXELM=0) 
 = 0.8149E-01(WHEN MIN. R.F.=1)  AT K=   3, I=   2, J=  32


 TOTAL NUMBER OF POINT SOURCES/SINKS PRESENT IN THE FLOW MODEL =   240

 MAXIMUM STEPSIZE WHICH MEETS STABILITY CRITERION OF THE SINK & SOURCE TERM
 = 0.1000E+31(WHEN MIN. R.F.=1)  AT K=   0, I=   0, J=   0

 MAXIMUM STEPSIZE WHICH MEETS STABILITY CRITERION OF THE DISPERSION TERM
 = 0.5613E-02(WHEN MIN. R.F.=1)  AT K=   3, I=   2, J=  32


     1 CALLS TO GCG PACKAGE FOR TRANSPORT TIME STEP   1 IN FLOW TIME STEP  26 STRESS PERIOD   2
    15 TOTAL ITERATIONS

 NO OUTPUT CONTROL FOR STRESS PERIOD    2   TIME STEP  26
 
 SOLVING FOR HEAD 
 FLOW MODEL IS TRANSIENT
 FLOW MODEL CONTAINS CONSTANT-HEAD CELLS


 MAXIMUM STEPSIZE DURING WHICH ANY PARTICLE CANNOT MOVE MORE THAN ONE CELL
 = 0.1189    (WHEN MIN. R.F.=1)  AT K=   3, I=   2, J=  33

 MAXIMUM STEPSIZE WHICH MEETS STABILITY CRITERION OF THE ADVECTION TERM
 (FOR PURE FINITE-DIFFERENCE OPTION, MIXELM=0) 
 = 0.8149E-01(WHEN MIN. R.F.=1)  AT K=   3, I=   2, J=  32


 TOTAL NUMBER OF POINT SOURCES/SINKS PRESENT IN THE FLOW MODEL =   240

 MAXIMUM STEPSIZE WHICH MEETS STABILITY CRITERION OF THE SINK & SOURCE TERM
 = 0.1000E+31(WHEN MIN. R.F.=1)  AT K=   0, I=   0, J=   0

 MAXIMUM STEPSIZE WHICH MEETS STABILITY CRITERION OF THE DISPERSION TERM
 = 0.5613E-02(WHEN MIN. R.F.=1)  AT K=   3, I=   2, J=  32
     1 CALLS TO GCG PACKAGE FOR TRANSPORT TIME STEP   2 IN FLOW TIME STEP  26 STRESS PERIOD   2
    15 TOTAL ITERATIONS
 
 SOLVING FOR HEAD 
 FLOW MODEL IS TRANSIENT
 FLOW MODEL CONTAINS CONSTANT-HEAD CELLS


 MAXIMUM STEPSIZE DURING WHICH ANY PARTICLE CANNOT MOVE MORE THAN ONE CELL
 = 0.1189    (WHEN MIN. R.F.=1)  AT K=   3, I=   2, J=  33

 MAXIMUM STEPSIZE WHICH MEETS STABILITY CRITERION OF THE ADVECTION TERM
 (FOR PURE FINITE-DIFFERENCE OPTION, MIXELM=0) 
 = 0.8149E-01(WHEN MIN. R.F.=1)  AT K=   3, I=   2, J=  32


 TOTAL NUMBER OF POINT SOURCES/SINKS PRESENT IN THE FLOW MODEL =   240

 MAXIMUM STEPSIZE WHICH MEETS STABILITY CRITERION OF THE SINK & SOURCE TERM
 = 0.1000E+31(WHEN MIN. R.F.=1)  AT K=   0, I=   0, J=   0

 MAXIMUM STEPSIZE WHICH MEETS STABILITY CRITERION OF THE DISPERSION TERM
 = 0.5613E-02(WHEN MIN. R.F.=1)  AT K=   3, I=   2, J=  32
     1 CALLS TO GCG PACKAGE FOR TRANSPORT TIME STEP   3 IN FLOW TIME STEP  26 STRESS PERIOD   2
    15 TOTAL ITERATIONS
 
 SOLVING FOR HEAD 
 FLOW MODEL IS TRANSIENT
 FLOW MODEL CONTAINS CONSTANT-HEAD CELLS


 MAXIMUM STEPSIZE DURING WHICH ANY PARTICLE CANNOT MOVE MORE THAN ONE CELL
 = 0.1189    (WHEN MIN. R.F.=1)  AT K=   3, I=   2, J=  33

 MAXIMUM STEPSIZE WHICH MEETS STABILITY CRITERION OF THE ADVECTION TERM
 (FOR PURE FINITE-DIFFERENCE OPTION, MIXELM=0) 
 = 0.8149E-01(WHEN MIN. R.F.=1)  AT K=   3, I=   2, J=  32


 TOTAL NUMBER OF POINT SOURCES/SINKS PRESENT IN THE FLOW MODEL =   240

 MAXIMUM STEPSIZE WHICH MEETS STABILITY CRITERION OF THE SINK & SOURCE TERM
 = 0.1000E+31(WHEN MIN. R.F.=1)  AT K=   0, I=   0, J=   0

 MAXIMUM STEPSIZE WHICH MEETS STABILITY CRITERION OF THE DISPERSION TERM
 = 0.5613E-02(WHEN MIN. R.F.=1)  AT K=   3, I=   2, J=  32
     1 CALLS TO GCG PACKAGE FOR TRANSPORT TIME STEP   4 IN FLOW TIME STEP  26 STRESS PERIOD   2
    15 TOTAL ITERATIONS
 
 SOLVING FOR HEAD 
 FLOW MODEL IS TRANSIENT
 FLOW MODEL CONTAINS CONSTANT-HEAD CELLS


 MAXIMUM STEPSIZE DURING WHICH ANY PARTICLE CANNOT MOVE MORE THAN ONE CELL
 = 0.1189    (WHEN MIN. R.F.=1)  AT K=   3, I=   2, J=  33

 MAXIMUM STEPSIZE WHICH MEETS STABILITY CRITERION OF THE ADVECTION TERM
 (FOR PURE FINITE-DIFFERENCE OPTION, MIXELM=0) 
 = 0.8149E-01(WHEN MIN. R.F.=1)  AT K=   3, I=   2, J=  32


 TOTAL NUMBER OF POINT SOURCES/SINKS PRESENT IN THE FLOW MODEL =   240

 MAXIMUM STEPSIZE WHICH MEETS STABILITY CRITERION OF THE SINK & SOURCE TERM
 = 0.1000E+31(WHEN MIN. R.F.=1)  AT K=   0, I=   0, J=   0

 MAXIMUM STEPSIZE WHICH MEETS STABILITY CRITERION OF THE DISPERSION TERM
 = 0.5613E-02(WHEN MIN. R.F.=1)  AT K=   3, I=   2, J=  32
     1 CALLS TO GCG PACKAGE FOR TRANSPORT TIME STEP   5 IN FLOW TIME STEP  26 STRESS PERIOD   2
    15 TOTAL ITERATIONS
 
 SOLVING FOR HEAD 
 FLOW MODEL IS TRANSIENT
 FLOW MODEL CONTAINS CONSTANT-HEAD CELLS


 MAXIMUM STEPSIZE DURING WHICH ANY PARTICLE CANNOT MOVE MORE THAN ONE CELL
 = 0.1189    (WHEN MIN. R.F.=1)  AT K=   3, I=   2, J=  33

 MAXIMUM STEPSIZE WHICH MEETS STABILITY CRITERION OF THE ADVECTION TERM
 (FOR PURE FINITE-DIFFERENCE OPTION, MIXELM=0) 
 = 0.8149E-01(WHEN MIN. R.F.=1)  AT K=   3, I=   2, J=  32


 TOTAL NUMBER OF POINT SOURCES/SINKS PRESENT IN THE FLOW MODEL =   240

 MAXIMUM STEPSIZE WHICH MEETS STABILITY CRITERION OF THE SINK & SOURCE TERM
 = 0.1000E+31(WHEN MIN. R.F.=1)  AT K=   0, I=   0, J=   0

 MAXIMUM STEPSIZE WHICH MEETS STABILITY CRITERION OF THE DISPERSION TERM
 = 0.5613E-02(WHEN MIN. R.F.=1)  AT K=   3, I=   2, J=  32
     1 CALLS TO GCG PACKAGE FOR TRANSPORT TIME STEP   6 IN FLOW TIME STEP  26 STRESS PERIOD   2
    15 TOTAL ITERATIONS
 
 SOLVING FOR HEAD 
 FLOW MODEL IS TRANSIENT
 FLOW MODEL CONTAINS CONSTANT-HEAD CELLS


 MAXIMUM STEPSIZE DURING WHICH ANY PARTICLE CANNOT MOVE MORE THAN ONE CELL
 = 0.1189    (WHEN MIN. R.F.=1)  AT K=   3, I=   2, J=  33

 MAXIMUM STEPSIZE WHICH MEETS STABILITY CRITERION OF THE ADVECTION TERM
 (FOR PURE FINITE-DIFFERENCE OPTION, MIXELM=0) 
 = 0.8149E-01(WHEN MIN. R.F.=1)  AT K=   3, I=   2, J=  32


 TOTAL NUMBER OF POINT SOURCES/SINKS PRESENT IN THE FLOW MODEL =   240

 MAXIMUM STEPSIZE WHICH MEETS STABILITY CRITERION OF THE SINK & SOURCE TERM
 = 0.1000E+31(WHEN MIN. R.F.=1)  AT K=   0, I=   0, J=   0

 MAXIMUM STEPSIZE WHICH MEETS STABILITY CRITERION OF THE DISPERSION TERM
 = 0.5613E-02(WHEN MIN. R.F.=1)  AT K=   3, I=   2, J=  32
     1 CALLS TO GCG PACKAGE FOR TRANSPORT TIME STEP   7 IN FLOW TIME STEP  26 STRESS PERIOD   2
    15 TOTAL ITERATIONS
 
 SOLVING FOR HEAD 
 FLOW MODEL IS TRANSIENT
 FLOW MODEL CONTAINS CONSTANT-HEAD CELLS


 MAXIMUM STEPSIZE DURING WHICH ANY PARTICLE CANNOT MOVE MORE THAN ONE CELL
 = 0.1189    (WHEN MIN. R.F.=1)  AT K=   3, I=   2, J=  33

 MAXIMUM STEPSIZE WHICH MEETS STABILITY CRITERION OF THE ADVECTION TERM
 (FOR PURE FINITE-DIFFERENCE OPTION, MIXELM=0) 
 = 0.8149E-01(WHEN MIN. R.F.=1)  AT K=   3, I=   2, J=  32


 TOTAL NUMBER OF POINT SOURCES/SINKS PRESENT IN THE FLOW MODEL =   240

 MAXIMUM STEPSIZE WHICH MEETS STABILITY CRITERION OF THE SINK & SOURCE TERM
 = 0.1000E+31(WHEN MIN. R.F.=1)  AT K=   0, I=   0, J=   0

 MAXIMUM STEPSIZE WHICH MEETS STABILITY CRITERION OF THE DISPERSION TERM
 = 0.5613E-02(WHEN MIN. R.F.=1)  AT K=   3, I=   2, J=  32
     1 CALLS TO GCG PACKAGE FOR TRANSPORT TIME STEP   8 IN FLOW TIME STEP  26 STRESS PERIOD   2
    15 TOTAL ITERATIONS
 
 SOLVING FOR HEAD 
 FLOW MODEL IS TRANSIENT
 FLOW MODEL CONTAINS CONSTANT-HEAD CELLS


 MAXIMUM STEPSIZE DURING WHICH ANY PARTICLE CANNOT MOVE MORE THAN ONE CELL
 = 0.1189    (WHEN MIN. R.F.=1)  AT K=   3, I=   2, J=  33

 MAXIMUM STEPSIZE WHICH MEETS STABILITY CRITERION OF THE ADVECTION TERM
 (FOR PURE FINITE-DIFFERENCE OPTION, MIXELM=0) 
 = 0.8149E-01(WHEN MIN. R.F.=1)  AT K=   3, I=   2, J=  32


 TOTAL NUMBER OF POINT SOURCES/SINKS PRESENT IN THE FLOW MODEL =   240

 MAXIMUM STEPSIZE WHICH MEETS STABILITY CRITERION OF THE SINK & SOURCE TERM
 = 0.1000E+31(WHEN MIN. R.F.=1)  AT K=   0, I=   0, J=   0

 MAXIMUM STEPSIZE WHICH MEETS STABILITY CRITERION OF THE DISPERSION TERM
 = 0.5613E-02(WHEN MIN. R.F.=1)  AT K=   3, I=   2, J=  32
     1 CALLS TO GCG PACKAGE FOR TRANSPORT TIME STEP   9 IN FLOW TIME STEP  26 STRESS PERIOD   2
    15 TOTAL ITERATIONS
 
 SOLVING FOR HEAD 
 FLOW MODEL IS TRANSIENT
 FLOW MODEL CONTAINS CONSTANT-HEAD CELLS


 MAXIMUM STEPSIZE DURING WHICH ANY PARTICLE CANNOT MOVE MORE THAN ONE CELL
 = 0.1189    (WHEN MIN. R.F.=1)  AT K=   3, I=   2, J=  33

 MAXIMUM STEPSIZE WHICH MEETS STABILITY CRITERION OF THE ADVECTION TERM
 (FOR PURE FINITE-DIFFERENCE OPTION, MIXELM=0) 
 = 0.8149E-01(WHEN MIN. R.F.=1)  AT K=   3, I=   2, J=  32


 TOTAL NUMBER OF POINT SOURCES/SINKS PRESENT IN THE FLOW MODEL =   240

 MAXIMUM STEPSIZE WHICH MEETS STABILITY CRITERION OF THE SINK & SOURCE TERM
 = 0.1000E+31(WHEN MIN. R.F.=1)  AT K=   0, I=   0, J=   0

 MAXIMUM STEPSIZE WHICH MEETS STABILITY CRITERION OF THE DISPERSION TERM
 = 0.5613E-02(WHEN MIN. R.F.=1)  AT K=   3, I=   2, J=  32
     1 CALLS TO GCG PACKAGE FOR TRANSPORT TIME STEP  10 IN FLOW TIME STEP  26 STRESS PERIOD   2
    15 TOTAL ITERATIONS



 >>>>>>>>>>>>>>>>>>>>>>>>>>>>>>>>>>>>>>>>>>>>>>>>>>>>>>>FOR COMPONENT NO. 01<<<<<<<<<<<<<<<<<<<<<<<<<<<<<<<<<<<<<<<<<<<<<<<<<<<<<<<


                                            -------------------------------------------
                                                      TRANSPORT STEP NO.   10
                                            -------------------------------------------

 TOTAL ELAPSED TIME SINCE BEGINNING OF SIMULATION =   26.89190    D   
 .....................................................................

                     CUMULATIVE MASS BUDGETS AT END OF TRANSPORT STEP   10, TIME STEP   26, STRESS PERIOD    2
                     ------------------------------------------------------------------------------------------

                                                             IN                           OUT
                                                      ----------------             ----------------
                               CONSTANT CONCENTRATION:    5835.930                   -2148.225    
                                        CONSTANT HEAD:    0.000000                    0.000000    
                               MASS STOR (FLOW MODEL):   0.1211868E-01              -0.3089437E-02
                                MASS STORAGE (SOLUTE):   0.5620034E-06               -3687.715    
                            ---------------------------------------------------------------------------
                                              [TOTAL]:    5835.942     KG            -5835.943     KG  

                                                          NET (IN - OUT):  -0.1682690E-02
                                                   DISCREPANCY (PERCENT):  -0.2883322E-04
 
 SOLVING FOR HEAD 
 FLOW MODEL IS TRANSIENT
 FLOW MODEL CONTAINS CONSTANT-HEAD CELLS


 MAXIMUM STEPSIZE DURING WHICH ANY PARTICLE CANNOT MOVE MORE THAN ONE CELL
 = 0.1189    (WHEN MIN. R.F.=1)  AT K=   3, I=   2, J=  33

 MAXIMUM STEPSIZE WHICH MEETS STABILITY CRITERION OF THE ADVECTION TERM
 (FOR PURE FINITE-DIFFERENCE OPTION, MIXELM=0) 
 = 0.8149E-01(WHEN MIN. R.F.=1)  AT K=   3, I=   2, J=  32


 TOTAL NUMBER OF POINT SOURCES/SINKS PRESENT IN THE FLOW MODEL =   240

 MAXIMUM STEPSIZE WHICH MEETS STABILITY CRITERION OF THE SINK & SOURCE TERM
 = 0.1000E+31(WHEN MIN. R.F.=1)  AT K=   0, I=   0, J=   0

 MAXIMUM STEPSIZE WHICH MEETS STABILITY CRITERION OF THE DISPERSION TERM
 = 0.5613E-02(WHEN MIN. R.F.=1)  AT K=   3, I=   2, J=  32
     1 CALLS TO GCG PACKAGE FOR TRANSPORT TIME STEP  11 IN FLOW TIME STEP  26 STRESS PERIOD   2
    15 TOTAL ITERATIONS
 
 SOLVING FOR HEAD 
 FLOW MODEL IS TRANSIENT
 FLOW MODEL CONTAINS CONSTANT-HEAD CELLS


 MAXIMUM STEPSIZE DURING WHICH ANY PARTICLE CANNOT MOVE MORE THAN ONE CELL
 = 0.1189    (WHEN MIN. R.F.=1)  AT K=   3, I=   2, J=  33

 MAXIMUM STEPSIZE WHICH MEETS STABILITY CRITERION OF THE ADVECTION TERM
 (FOR PURE FINITE-DIFFERENCE OPTION, MIXELM=0) 
 = 0.8149E-01(WHEN MIN. R.F.=1)  AT K=   3, I=   2, J=  32


 TOTAL NUMBER OF POINT SOURCES/SINKS PRESENT IN THE FLOW MODEL =   240

 MAXIMUM STEPSIZE WHICH MEETS STABILITY CRITERION OF THE SINK & SOURCE TERM
 = 0.1000E+31(WHEN MIN. R.F.=1)  AT K=   0, I=   0, J=   0

 MAXIMUM STEPSIZE WHICH MEETS STABILITY CRITERION OF THE DISPERSION TERM
 = 0.5613E-02(WHEN MIN. R.F.=1)  AT K=   3, I=   2, J=  32
     1 CALLS TO GCG PACKAGE FOR TRANSPORT TIME STEP  12 IN FLOW TIME STEP  26 STRESS PERIOD   2
     8 TOTAL ITERATIONS
  MAXIMUM CONCENTRATION CHANGES FOR EACH ITERATION:
  MAX. CHANGE LAYER,ROW,COL MAX. CHANGE LAYER,ROW,COL MAX. CHANGE LAYER,ROW,COL MAX. CHANGE LAYER,ROW,COL MAX. CHANGE LAYER,ROW,COL
 ------------------------------------------------------------------------------------------------------------------------------------
   0.3116E-03 ( 13,  2, 57)  0.4425E-04 (  6,  2, 60)  0.5977E-05 (  5,  2, 57)  0.2514E-05 (  3,  2, 33)  0.1115E-05 (  4,  2, 33)
   0.4335E-06 (  3,  2, 33)  0.1143E-06 (  2,  2, 33)  0.4183E-07 (  3,  2, 33)


                                          ================================================
                                                         FROM TIME =   27.000     TO    28.000    

 
 SOLVING FOR HEAD 
 FLOW MODEL IS TRANSIENT
 FLOW MODEL CONTAINS CONSTANT-HEAD CELLS


 MAXIMUM STEPSIZE DURING WHICH ANY PARTICLE CANNOT MOVE MORE THAN ONE CELL
 = 0.1189    (WHEN MIN. R.F.=1)  AT K=   3, I=   2, J=  33

 MAXIMUM STEPSIZE WHICH MEETS STABILITY CRITERION OF THE ADVECTION TERM
 (FOR PURE FINITE-DIFFERENCE OPTION, MIXELM=0) 
 = 0.8149E-01(WHEN MIN. R.F.=1)  AT K=   3, I=   2, J=  32


 TOTAL NUMBER OF POINT SOURCES/SINKS PRESENT IN THE FLOW MODEL =   240

 MAXIMUM STEPSIZE WHICH MEETS STABILITY CRITERION OF THE SINK & SOURCE TERM
 = 0.1000E+31(WHEN MIN. R.F.=1)  AT K=   0, I=   0, J=   0

 MAXIMUM STEPSIZE WHICH MEETS STABILITY CRITERION OF THE DISPERSION TERM
 = 0.5613E-02(WHEN MIN. R.F.=1)  AT K=   3, I=   2, J=  32


     1 CALLS TO GCG PACKAGE FOR TRANSPORT TIME STEP   1 IN FLOW TIME STEP  27 STRESS PERIOD   2
    15 TOTAL ITERATIONS

 NO OUTPUT CONTROL FOR STRESS PERIOD    2   TIME STEP  27
 
 SOLVING FOR HEAD 
 FLOW MODEL IS TRANSIENT
 FLOW MODEL CONTAINS CONSTANT-HEAD CELLS


 MAXIMUM STEPSIZE DURING WHICH ANY PARTICLE CANNOT MOVE MORE THAN ONE CELL
 = 0.1189    (WHEN MIN. R.F.=1)  AT K=   3, I=   2, J=  33

 MAXIMUM STEPSIZE WHICH MEETS STABILITY CRITERION OF THE ADVECTION TERM
 (FOR PURE FINITE-DIFFERENCE OPTION, MIXELM=0) 
 = 0.8149E-01(WHEN MIN. R.F.=1)  AT K=   3, I=   2, J=  32


 TOTAL NUMBER OF POINT SOURCES/SINKS PRESENT IN THE FLOW MODEL =   240

 MAXIMUM STEPSIZE WHICH MEETS STABILITY CRITERION OF THE SINK & SOURCE TERM
 = 0.1000E+31(WHEN MIN. R.F.=1)  AT K=   0, I=   0, J=   0

 MAXIMUM STEPSIZE WHICH MEETS STABILITY CRITERION OF THE DISPERSION TERM
 = 0.5613E-02(WHEN MIN. R.F.=1)  AT K=   3, I=   2, J=  32
     1 CALLS TO GCG PACKAGE FOR TRANSPORT TIME STEP   2 IN FLOW TIME STEP  27 STRESS PERIOD   2
    15 TOTAL ITERATIONS
 
 SOLVING FOR HEAD 
 FLOW MODEL IS TRANSIENT
 FLOW MODEL CONTAINS CONSTANT-HEAD CELLS


 MAXIMUM STEPSIZE DURING WHICH ANY PARTICLE CANNOT MOVE MORE THAN ONE CELL
 = 0.1189    (WHEN MIN. R.F.=1)  AT K=   3, I=   2, J=  33

 MAXIMUM STEPSIZE WHICH MEETS STABILITY CRITERION OF THE ADVECTION TERM
 (FOR PURE FINITE-DIFFERENCE OPTION, MIXELM=0) 
 = 0.8149E-01(WHEN MIN. R.F.=1)  AT K=   3, I=   2, J=  32


 TOTAL NUMBER OF POINT SOURCES/SINKS PRESENT IN THE FLOW MODEL =   240

 MAXIMUM STEPSIZE WHICH MEETS STABILITY CRITERION OF THE SINK & SOURCE TERM
 = 0.1000E+31(WHEN MIN. R.F.=1)  AT K=   0, I=   0, J=   0

 MAXIMUM STEPSIZE WHICH MEETS STABILITY CRITERION OF THE DISPERSION TERM
 = 0.5613E-02(WHEN MIN. R.F.=1)  AT K=   3, I=   2, J=  32
     1 CALLS TO GCG PACKAGE FOR TRANSPORT TIME STEP   3 IN FLOW TIME STEP  27 STRESS PERIOD   2
    15 TOTAL ITERATIONS
 
 SOLVING FOR HEAD 
 FLOW MODEL IS TRANSIENT
 FLOW MODEL CONTAINS CONSTANT-HEAD CELLS


 MAXIMUM STEPSIZE DURING WHICH ANY PARTICLE CANNOT MOVE MORE THAN ONE CELL
 = 0.1189    (WHEN MIN. R.F.=1)  AT K=   3, I=   2, J=  33

 MAXIMUM STEPSIZE WHICH MEETS STABILITY CRITERION OF THE ADVECTION TERM
 (FOR PURE FINITE-DIFFERENCE OPTION, MIXELM=0) 
 = 0.8149E-01(WHEN MIN. R.F.=1)  AT K=   3, I=   2, J=  32


 TOTAL NUMBER OF POINT SOURCES/SINKS PRESENT IN THE FLOW MODEL =   240

 MAXIMUM STEPSIZE WHICH MEETS STABILITY CRITERION OF THE SINK & SOURCE TERM
 = 0.1000E+31(WHEN MIN. R.F.=1)  AT K=   0, I=   0, J=   0

 MAXIMUM STEPSIZE WHICH MEETS STABILITY CRITERION OF THE DISPERSION TERM
 = 0.5613E-02(WHEN MIN. R.F.=1)  AT K=   3, I=   2, J=  32
     1 CALLS TO GCG PACKAGE FOR TRANSPORT TIME STEP   4 IN FLOW TIME STEP  27 STRESS PERIOD   2
    15 TOTAL ITERATIONS
 
 SOLVING FOR HEAD 
 FLOW MODEL IS TRANSIENT
 FLOW MODEL CONTAINS CONSTANT-HEAD CELLS


 MAXIMUM STEPSIZE DURING WHICH ANY PARTICLE CANNOT MOVE MORE THAN ONE CELL
 = 0.1189    (WHEN MIN. R.F.=1)  AT K=   3, I=   2, J=  33

 MAXIMUM STEPSIZE WHICH MEETS STABILITY CRITERION OF THE ADVECTION TERM
 (FOR PURE FINITE-DIFFERENCE OPTION, MIXELM=0) 
 = 0.8149E-01(WHEN MIN. R.F.=1)  AT K=   3, I=   2, J=  32


 TOTAL NUMBER OF POINT SOURCES/SINKS PRESENT IN THE FLOW MODEL =   240

 MAXIMUM STEPSIZE WHICH MEETS STABILITY CRITERION OF THE SINK & SOURCE TERM
 = 0.1000E+31(WHEN MIN. R.F.=1)  AT K=   0, I=   0, J=   0

 MAXIMUM STEPSIZE WHICH MEETS STABILITY CRITERION OF THE DISPERSION TERM
 = 0.5613E-02(WHEN MIN. R.F.=1)  AT K=   3, I=   2, J=  32
     1 CALLS TO GCG PACKAGE FOR TRANSPORT TIME STEP   5 IN FLOW TIME STEP  27 STRESS PERIOD   2
    15 TOTAL ITERATIONS
 
 SOLVING FOR HEAD 
 FLOW MODEL IS TRANSIENT
 FLOW MODEL CONTAINS CONSTANT-HEAD CELLS


 MAXIMUM STEPSIZE DURING WHICH ANY PARTICLE CANNOT MOVE MORE THAN ONE CELL
 = 0.1189    (WHEN MIN. R.F.=1)  AT K=   3, I=   2, J=  33

 MAXIMUM STEPSIZE WHICH MEETS STABILITY CRITERION OF THE ADVECTION TERM
 (FOR PURE FINITE-DIFFERENCE OPTION, MIXELM=0) 
 = 0.8149E-01(WHEN MIN. R.F.=1)  AT K=   3, I=   2, J=  32


 TOTAL NUMBER OF POINT SOURCES/SINKS PRESENT IN THE FLOW MODEL =   240

 MAXIMUM STEPSIZE WHICH MEETS STABILITY CRITERION OF THE SINK & SOURCE TERM
 = 0.1000E+31(WHEN MIN. R.F.=1)  AT K=   0, I=   0, J=   0

 MAXIMUM STEPSIZE WHICH MEETS STABILITY CRITERION OF THE DISPERSION TERM
 = 0.5613E-02(WHEN MIN. R.F.=1)  AT K=   3, I=   2, J=  32
     1 CALLS TO GCG PACKAGE FOR TRANSPORT TIME STEP   6 IN FLOW TIME STEP  27 STRESS PERIOD   2
    15 TOTAL ITERATIONS
 
 SOLVING FOR HEAD 
 FLOW MODEL IS TRANSIENT
 FLOW MODEL CONTAINS CONSTANT-HEAD CELLS


 MAXIMUM STEPSIZE DURING WHICH ANY PARTICLE CANNOT MOVE MORE THAN ONE CELL
 = 0.1189    (WHEN MIN. R.F.=1)  AT K=   3, I=   2, J=  33

 MAXIMUM STEPSIZE WHICH MEETS STABILITY CRITERION OF THE ADVECTION TERM
 (FOR PURE FINITE-DIFFERENCE OPTION, MIXELM=0) 
 = 0.8148E-01(WHEN MIN. R.F.=1)  AT K=   3, I=   2, J=  32


 TOTAL NUMBER OF POINT SOURCES/SINKS PRESENT IN THE FLOW MODEL =   240

 MAXIMUM STEPSIZE WHICH MEETS STABILITY CRITERION OF THE SINK & SOURCE TERM
 = 0.1000E+31(WHEN MIN. R.F.=1)  AT K=   0, I=   0, J=   0

 MAXIMUM STEPSIZE WHICH MEETS STABILITY CRITERION OF THE DISPERSION TERM
 = 0.5613E-02(WHEN MIN. R.F.=1)  AT K=   3, I=   2, J=  32
     1 CALLS TO GCG PACKAGE FOR TRANSPORT TIME STEP   7 IN FLOW TIME STEP  27 STRESS PERIOD   2
    15 TOTAL ITERATIONS
 
 SOLVING FOR HEAD 
 FLOW MODEL IS TRANSIENT
 FLOW MODEL CONTAINS CONSTANT-HEAD CELLS


 MAXIMUM STEPSIZE DURING WHICH ANY PARTICLE CANNOT MOVE MORE THAN ONE CELL
 = 0.1189    (WHEN MIN. R.F.=1)  AT K=   3, I=   2, J=  33

 MAXIMUM STEPSIZE WHICH MEETS STABILITY CRITERION OF THE ADVECTION TERM
 (FOR PURE FINITE-DIFFERENCE OPTION, MIXELM=0) 
 = 0.8148E-01(WHEN MIN. R.F.=1)  AT K=   3, I=   2, J=  32


 TOTAL NUMBER OF POINT SOURCES/SINKS PRESENT IN THE FLOW MODEL =   240

 MAXIMUM STEPSIZE WHICH MEETS STABILITY CRITERION OF THE SINK & SOURCE TERM
 = 0.1000E+31(WHEN MIN. R.F.=1)  AT K=   0, I=   0, J=   0

 MAXIMUM STEPSIZE WHICH MEETS STABILITY CRITERION OF THE DISPERSION TERM
 = 0.5613E-02(WHEN MIN. R.F.=1)  AT K=   3, I=   2, J=  32
     1 CALLS TO GCG PACKAGE FOR TRANSPORT TIME STEP   8 IN FLOW TIME STEP  27 STRESS PERIOD   2
    15 TOTAL ITERATIONS
 
 SOLVING FOR HEAD 
 FLOW MODEL IS TRANSIENT
 FLOW MODEL CONTAINS CONSTANT-HEAD CELLS


 MAXIMUM STEPSIZE DURING WHICH ANY PARTICLE CANNOT MOVE MORE THAN ONE CELL
 = 0.1189    (WHEN MIN. R.F.=1)  AT K=   3, I=   2, J=  33

 MAXIMUM STEPSIZE WHICH MEETS STABILITY CRITERION OF THE ADVECTION TERM
 (FOR PURE FINITE-DIFFERENCE OPTION, MIXELM=0) 
 = 0.8148E-01(WHEN MIN. R.F.=1)  AT K=   3, I=   2, J=  32


 TOTAL NUMBER OF POINT SOURCES/SINKS PRESENT IN THE FLOW MODEL =   240

 MAXIMUM STEPSIZE WHICH MEETS STABILITY CRITERION OF THE SINK & SOURCE TERM
 = 0.1000E+31(WHEN MIN. R.F.=1)  AT K=   0, I=   0, J=   0

 MAXIMUM STEPSIZE WHICH MEETS STABILITY CRITERION OF THE DISPERSION TERM
 = 0.5613E-02(WHEN MIN. R.F.=1)  AT K=   3, I=   2, J=  32
     1 CALLS TO GCG PACKAGE FOR TRANSPORT TIME STEP   9 IN FLOW TIME STEP  27 STRESS PERIOD   2
    15 TOTAL ITERATIONS
 
 SOLVING FOR HEAD 
 FLOW MODEL IS TRANSIENT
 FLOW MODEL CONTAINS CONSTANT-HEAD CELLS


 MAXIMUM STEPSIZE DURING WHICH ANY PARTICLE CANNOT MOVE MORE THAN ONE CELL
 = 0.1189    (WHEN MIN. R.F.=1)  AT K=   3, I=   2, J=  33

 MAXIMUM STEPSIZE WHICH MEETS STABILITY CRITERION OF THE ADVECTION TERM
 (FOR PURE FINITE-DIFFERENCE OPTION, MIXELM=0) 
 = 0.8148E-01(WHEN MIN. R.F.=1)  AT K=   3, I=   2, J=  32


 TOTAL NUMBER OF POINT SOURCES/SINKS PRESENT IN THE FLOW MODEL =   240

 MAXIMUM STEPSIZE WHICH MEETS STABILITY CRITERION OF THE SINK & SOURCE TERM
 = 0.1000E+31(WHEN MIN. R.F.=1)  AT K=   0, I=   0, J=   0

 MAXIMUM STEPSIZE WHICH MEETS STABILITY CRITERION OF THE DISPERSION TERM
 = 0.5613E-02(WHEN MIN. R.F.=1)  AT K=   3, I=   2, J=  32
     1 CALLS TO GCG PACKAGE FOR TRANSPORT TIME STEP  10 IN FLOW TIME STEP  27 STRESS PERIOD   2
    15 TOTAL ITERATIONS



 >>>>>>>>>>>>>>>>>>>>>>>>>>>>>>>>>>>>>>>>>>>>>>>>>>>>>>>FOR COMPONENT NO. 01<<<<<<<<<<<<<<<<<<<<<<<<<<<<<<<<<<<<<<<<<<<<<<<<<<<<<<<


                                            -------------------------------------------
                                                      TRANSPORT STEP NO.   10
                                            -------------------------------------------

 TOTAL ELAPSED TIME SINCE BEGINNING OF SIMULATION =   27.89184    D   
 .....................................................................

                     CUMULATIVE MASS BUDGETS AT END OF TRANSPORT STEP   10, TIME STEP   27, STRESS PERIOD    2
                     ------------------------------------------------------------------------------------------

                                                             IN                           OUT
                                                      ----------------             ----------------
                               CONSTANT CONCENTRATION:    5969.844                   -2238.758    
                                        CONSTANT HEAD:    0.000000                    0.000000    
                               MASS STOR (FLOW MODEL):   0.1213794E-01              -0.3104955E-02
                                MASS STORAGE (SOLUTE):   0.5620034E-06               -3731.097    
                            ---------------------------------------------------------------------------
                                              [TOTAL]:    5969.856     KG            -5969.858     KG  

                                                          NET (IN - OUT):  -0.1756648E-02
                                                   DISCREPANCY (PERCENT):  -0.2942529E-04
 
 SOLVING FOR HEAD 
 FLOW MODEL IS TRANSIENT
 FLOW MODEL CONTAINS CONSTANT-HEAD CELLS


 MAXIMUM STEPSIZE DURING WHICH ANY PARTICLE CANNOT MOVE MORE THAN ONE CELL
 = 0.1189    (WHEN MIN. R.F.=1)  AT K=   3, I=   2, J=  33

 MAXIMUM STEPSIZE WHICH MEETS STABILITY CRITERION OF THE ADVECTION TERM
 (FOR PURE FINITE-DIFFERENCE OPTION, MIXELM=0) 
 = 0.8148E-01(WHEN MIN. R.F.=1)  AT K=   3, I=   2, J=  32


 TOTAL NUMBER OF POINT SOURCES/SINKS PRESENT IN THE FLOW MODEL =   240

 MAXIMUM STEPSIZE WHICH MEETS STABILITY CRITERION OF THE SINK & SOURCE TERM
 = 0.1000E+31(WHEN MIN. R.F.=1)  AT K=   0, I=   0, J=   0

 MAXIMUM STEPSIZE WHICH MEETS STABILITY CRITERION OF THE DISPERSION TERM
 = 0.5613E-02(WHEN MIN. R.F.=1)  AT K=   3, I=   2, J=  32
     1 CALLS TO GCG PACKAGE FOR TRANSPORT TIME STEP  11 IN FLOW TIME STEP  27 STRESS PERIOD   2
    15 TOTAL ITERATIONS
 
 SOLVING FOR HEAD 
 FLOW MODEL IS TRANSIENT
 FLOW MODEL CONTAINS CONSTANT-HEAD CELLS


 MAXIMUM STEPSIZE DURING WHICH ANY PARTICLE CANNOT MOVE MORE THAN ONE CELL
 = 0.1189    (WHEN MIN. R.F.=1)  AT K=   3, I=   2, J=  33

 MAXIMUM STEPSIZE WHICH MEETS STABILITY CRITERION OF THE ADVECTION TERM
 (FOR PURE FINITE-DIFFERENCE OPTION, MIXELM=0) 
 = 0.8148E-01(WHEN MIN. R.F.=1)  AT K=   3, I=   2, J=  32


 TOTAL NUMBER OF POINT SOURCES/SINKS PRESENT IN THE FLOW MODEL =   240

 MAXIMUM STEPSIZE WHICH MEETS STABILITY CRITERION OF THE SINK & SOURCE TERM
 = 0.1000E+31(WHEN MIN. R.F.=1)  AT K=   0, I=   0, J=   0

 MAXIMUM STEPSIZE WHICH MEETS STABILITY CRITERION OF THE DISPERSION TERM
 = 0.5613E-02(WHEN MIN. R.F.=1)  AT K=   3, I=   2, J=  32
     1 CALLS TO GCG PACKAGE FOR TRANSPORT TIME STEP  12 IN FLOW TIME STEP  27 STRESS PERIOD   2
     8 TOTAL ITERATIONS
  MAXIMUM CONCENTRATION CHANGES FOR EACH ITERATION:
  MAX. CHANGE LAYER,ROW,COL MAX. CHANGE LAYER,ROW,COL MAX. CHANGE LAYER,ROW,COL MAX. CHANGE LAYER,ROW,COL MAX. CHANGE LAYER,ROW,COL
 ------------------------------------------------------------------------------------------------------------------------------------
   0.3022E-03 ( 13,  2, 57)  0.4197E-04 (  6,  2, 60)  0.5700E-05 (  5,  2, 57)  0.2335E-05 (  3,  2, 33)  0.1039E-05 (  4,  2, 33)
   0.4057E-06 (  3,  2, 33)  0.1072E-06 (  2,  2, 33)  0.3930E-07 (  3,  2, 33)


                                          ================================================
                                                         FROM TIME =   28.000     TO    29.000    

 
 SOLVING FOR HEAD 
 FLOW MODEL IS TRANSIENT
 FLOW MODEL CONTAINS CONSTANT-HEAD CELLS


 MAXIMUM STEPSIZE DURING WHICH ANY PARTICLE CANNOT MOVE MORE THAN ONE CELL
 = 0.1189    (WHEN MIN. R.F.=1)  AT K=   3, I=   2, J=  33

 MAXIMUM STEPSIZE WHICH MEETS STABILITY CRITERION OF THE ADVECTION TERM
 (FOR PURE FINITE-DIFFERENCE OPTION, MIXELM=0) 
 = 0.8148E-01(WHEN MIN. R.F.=1)  AT K=   3, I=   2, J=  32


 TOTAL NUMBER OF POINT SOURCES/SINKS PRESENT IN THE FLOW MODEL =   240

 MAXIMUM STEPSIZE WHICH MEETS STABILITY CRITERION OF THE SINK & SOURCE TERM
 = 0.1000E+31(WHEN MIN. R.F.=1)  AT K=   0, I=   0, J=   0

 MAXIMUM STEPSIZE WHICH MEETS STABILITY CRITERION OF THE DISPERSION TERM
 = 0.5613E-02(WHEN MIN. R.F.=1)  AT K=   3, I=   2, J=  32


     1 CALLS TO GCG PACKAGE FOR TRANSPORT TIME STEP   1 IN FLOW TIME STEP  28 STRESS PERIOD   2
    15 TOTAL ITERATIONS

 NO OUTPUT CONTROL FOR STRESS PERIOD    2   TIME STEP  28
 
 SOLVING FOR HEAD 
 FLOW MODEL IS TRANSIENT
 FLOW MODEL CONTAINS CONSTANT-HEAD CELLS


 MAXIMUM STEPSIZE DURING WHICH ANY PARTICLE CANNOT MOVE MORE THAN ONE CELL
 = 0.1189    (WHEN MIN. R.F.=1)  AT K=   3, I=   2, J=  33

 MAXIMUM STEPSIZE WHICH MEETS STABILITY CRITERION OF THE ADVECTION TERM
 (FOR PURE FINITE-DIFFERENCE OPTION, MIXELM=0) 
 = 0.8148E-01(WHEN MIN. R.F.=1)  AT K=   3, I=   2, J=  32


 TOTAL NUMBER OF POINT SOURCES/SINKS PRESENT IN THE FLOW MODEL =   240

 MAXIMUM STEPSIZE WHICH MEETS STABILITY CRITERION OF THE SINK & SOURCE TERM
 = 0.1000E+31(WHEN MIN. R.F.=1)  AT K=   0, I=   0, J=   0

 MAXIMUM STEPSIZE WHICH MEETS STABILITY CRITERION OF THE DISPERSION TERM
 = 0.5613E-02(WHEN MIN. R.F.=1)  AT K=   3, I=   2, J=  32
     1 CALLS TO GCG PACKAGE FOR TRANSPORT TIME STEP   2 IN FLOW TIME STEP  28 STRESS PERIOD   2
    15 TOTAL ITERATIONS
 
 SOLVING FOR HEAD 
 FLOW MODEL IS TRANSIENT
 FLOW MODEL CONTAINS CONSTANT-HEAD CELLS


 MAXIMUM STEPSIZE DURING WHICH ANY PARTICLE CANNOT MOVE MORE THAN ONE CELL
 = 0.1189    (WHEN MIN. R.F.=1)  AT K=   3, I=   2, J=  33

 MAXIMUM STEPSIZE WHICH MEETS STABILITY CRITERION OF THE ADVECTION TERM
 (FOR PURE FINITE-DIFFERENCE OPTION, MIXELM=0) 
 = 0.8148E-01(WHEN MIN. R.F.=1)  AT K=   3, I=   2, J=  32


 TOTAL NUMBER OF POINT SOURCES/SINKS PRESENT IN THE FLOW MODEL =   240

 MAXIMUM STEPSIZE WHICH MEETS STABILITY CRITERION OF THE SINK & SOURCE TERM
 = 0.1000E+31(WHEN MIN. R.F.=1)  AT K=   0, I=   0, J=   0

 MAXIMUM STEPSIZE WHICH MEETS STABILITY CRITERION OF THE DISPERSION TERM
 = 0.5613E-02(WHEN MIN. R.F.=1)  AT K=   3, I=   2, J=  32
     1 CALLS TO GCG PACKAGE FOR TRANSPORT TIME STEP   3 IN FLOW TIME STEP  28 STRESS PERIOD   2
    15 TOTAL ITERATIONS
 
 SOLVING FOR HEAD 
 FLOW MODEL IS TRANSIENT
 FLOW MODEL CONTAINS CONSTANT-HEAD CELLS


 MAXIMUM STEPSIZE DURING WHICH ANY PARTICLE CANNOT MOVE MORE THAN ONE CELL
 = 0.1189    (WHEN MIN. R.F.=1)  AT K=   3, I=   2, J=  33

 MAXIMUM STEPSIZE WHICH MEETS STABILITY CRITERION OF THE ADVECTION TERM
 (FOR PURE FINITE-DIFFERENCE OPTION, MIXELM=0) 
 = 0.8148E-01(WHEN MIN. R.F.=1)  AT K=   3, I=   2, J=  32


 TOTAL NUMBER OF POINT SOURCES/SINKS PRESENT IN THE FLOW MODEL =   240

 MAXIMUM STEPSIZE WHICH MEETS STABILITY CRITERION OF THE SINK & SOURCE TERM
 = 0.1000E+31(WHEN MIN. R.F.=1)  AT K=   0, I=   0, J=   0

 MAXIMUM STEPSIZE WHICH MEETS STABILITY CRITERION OF THE DISPERSION TERM
 = 0.5613E-02(WHEN MIN. R.F.=1)  AT K=   3, I=   2, J=  32
     1 CALLS TO GCG PACKAGE FOR TRANSPORT TIME STEP   4 IN FLOW TIME STEP  28 STRESS PERIOD   2
    15 TOTAL ITERATIONS
 
 SOLVING FOR HEAD 
 FLOW MODEL IS TRANSIENT
 FLOW MODEL CONTAINS CONSTANT-HEAD CELLS


 MAXIMUM STEPSIZE DURING WHICH ANY PARTICLE CANNOT MOVE MORE THAN ONE CELL
 = 0.1189    (WHEN MIN. R.F.=1)  AT K=   3, I=   2, J=  33

 MAXIMUM STEPSIZE WHICH MEETS STABILITY CRITERION OF THE ADVECTION TERM
 (FOR PURE FINITE-DIFFERENCE OPTION, MIXELM=0) 
 = 0.8148E-01(WHEN MIN. R.F.=1)  AT K=   3, I=   2, J=  32


 TOTAL NUMBER OF POINT SOURCES/SINKS PRESENT IN THE FLOW MODEL =   240

 MAXIMUM STEPSIZE WHICH MEETS STABILITY CRITERION OF THE SINK & SOURCE TERM
 = 0.1000E+31(WHEN MIN. R.F.=1)  AT K=   0, I=   0, J=   0

 MAXIMUM STEPSIZE WHICH MEETS STABILITY CRITERION OF THE DISPERSION TERM
 = 0.5613E-02(WHEN MIN. R.F.=1)  AT K=   3, I=   2, J=  32
     1 CALLS TO GCG PACKAGE FOR TRANSPORT TIME STEP   5 IN FLOW TIME STEP  28 STRESS PERIOD   2
    15 TOTAL ITERATIONS
 
 SOLVING FOR HEAD 
 FLOW MODEL IS TRANSIENT
 FLOW MODEL CONTAINS CONSTANT-HEAD CELLS


 MAXIMUM STEPSIZE DURING WHICH ANY PARTICLE CANNOT MOVE MORE THAN ONE CELL
 = 0.1189    (WHEN MIN. R.F.=1)  AT K=   3, I=   2, J=  33

 MAXIMUM STEPSIZE WHICH MEETS STABILITY CRITERION OF THE ADVECTION TERM
 (FOR PURE FINITE-DIFFERENCE OPTION, MIXELM=0) 
 = 0.8148E-01(WHEN MIN. R.F.=1)  AT K=   3, I=   2, J=  32


 TOTAL NUMBER OF POINT SOURCES/SINKS PRESENT IN THE FLOW MODEL =   240

 MAXIMUM STEPSIZE WHICH MEETS STABILITY CRITERION OF THE SINK & SOURCE TERM
 = 0.1000E+31(WHEN MIN. R.F.=1)  AT K=   0, I=   0, J=   0

 MAXIMUM STEPSIZE WHICH MEETS STABILITY CRITERION OF THE DISPERSION TERM
 = 0.5613E-02(WHEN MIN. R.F.=1)  AT K=   3, I=   2, J=  32
     1 CALLS TO GCG PACKAGE FOR TRANSPORT TIME STEP   6 IN FLOW TIME STEP  28 STRESS PERIOD   2
    15 TOTAL ITERATIONS
 
 SOLVING FOR HEAD 
 FLOW MODEL IS TRANSIENT
 FLOW MODEL CONTAINS CONSTANT-HEAD CELLS


 MAXIMUM STEPSIZE DURING WHICH ANY PARTICLE CANNOT MOVE MORE THAN ONE CELL
 = 0.1189    (WHEN MIN. R.F.=1)  AT K=   3, I=   2, J=  33

 MAXIMUM STEPSIZE WHICH MEETS STABILITY CRITERION OF THE ADVECTION TERM
 (FOR PURE FINITE-DIFFERENCE OPTION, MIXELM=0) 
 = 0.8148E-01(WHEN MIN. R.F.=1)  AT K=   3, I=   2, J=  32


 TOTAL NUMBER OF POINT SOURCES/SINKS PRESENT IN THE FLOW MODEL =   240

 MAXIMUM STEPSIZE WHICH MEETS STABILITY CRITERION OF THE SINK & SOURCE TERM
 = 0.1000E+31(WHEN MIN. R.F.=1)  AT K=   0, I=   0, J=   0

 MAXIMUM STEPSIZE WHICH MEETS STABILITY CRITERION OF THE DISPERSION TERM
 = 0.5613E-02(WHEN MIN. R.F.=1)  AT K=   3, I=   2, J=  32
     1 CALLS TO GCG PACKAGE FOR TRANSPORT TIME STEP   7 IN FLOW TIME STEP  28 STRESS PERIOD   2
    15 TOTAL ITERATIONS
 
 SOLVING FOR HEAD 
 FLOW MODEL IS TRANSIENT
 FLOW MODEL CONTAINS CONSTANT-HEAD CELLS


 MAXIMUM STEPSIZE DURING WHICH ANY PARTICLE CANNOT MOVE MORE THAN ONE CELL
 = 0.1189    (WHEN MIN. R.F.=1)  AT K=   3, I=   2, J=  33

 MAXIMUM STEPSIZE WHICH MEETS STABILITY CRITERION OF THE ADVECTION TERM
 (FOR PURE FINITE-DIFFERENCE OPTION, MIXELM=0) 
 = 0.8148E-01(WHEN MIN. R.F.=1)  AT K=   3, I=   2, J=  32


 TOTAL NUMBER OF POINT SOURCES/SINKS PRESENT IN THE FLOW MODEL =   240

 MAXIMUM STEPSIZE WHICH MEETS STABILITY CRITERION OF THE SINK & SOURCE TERM
 = 0.1000E+31(WHEN MIN. R.F.=1)  AT K=   0, I=   0, J=   0

 MAXIMUM STEPSIZE WHICH MEETS STABILITY CRITERION OF THE DISPERSION TERM
 = 0.5613E-02(WHEN MIN. R.F.=1)  AT K=   3, I=   2, J=  32
     1 CALLS TO GCG PACKAGE FOR TRANSPORT TIME STEP   8 IN FLOW TIME STEP  28 STRESS PERIOD   2
    15 TOTAL ITERATIONS
 
 SOLVING FOR HEAD 
 FLOW MODEL IS TRANSIENT
 FLOW MODEL CONTAINS CONSTANT-HEAD CELLS


 MAXIMUM STEPSIZE DURING WHICH ANY PARTICLE CANNOT MOVE MORE THAN ONE CELL
 = 0.1189    (WHEN MIN. R.F.=1)  AT K=   3, I=   2, J=  33

 MAXIMUM STEPSIZE WHICH MEETS STABILITY CRITERION OF THE ADVECTION TERM
 (FOR PURE FINITE-DIFFERENCE OPTION, MIXELM=0) 
 = 0.8148E-01(WHEN MIN. R.F.=1)  AT K=   3, I=   2, J=  32


 TOTAL NUMBER OF POINT SOURCES/SINKS PRESENT IN THE FLOW MODEL =   240

 MAXIMUM STEPSIZE WHICH MEETS STABILITY CRITERION OF THE SINK & SOURCE TERM
 = 0.1000E+31(WHEN MIN. R.F.=1)  AT K=   0, I=   0, J=   0

 MAXIMUM STEPSIZE WHICH MEETS STABILITY CRITERION OF THE DISPERSION TERM
 = 0.5613E-02(WHEN MIN. R.F.=1)  AT K=   3, I=   2, J=  32
     1 CALLS TO GCG PACKAGE FOR TRANSPORT TIME STEP   9 IN FLOW TIME STEP  28 STRESS PERIOD   2
    15 TOTAL ITERATIONS
 
 SOLVING FOR HEAD 
 FLOW MODEL IS TRANSIENT
 FLOW MODEL CONTAINS CONSTANT-HEAD CELLS


 MAXIMUM STEPSIZE DURING WHICH ANY PARTICLE CANNOT MOVE MORE THAN ONE CELL
 = 0.1189    (WHEN MIN. R.F.=1)  AT K=   3, I=   2, J=  33

 MAXIMUM STEPSIZE WHICH MEETS STABILITY CRITERION OF THE ADVECTION TERM
 (FOR PURE FINITE-DIFFERENCE OPTION, MIXELM=0) 
 = 0.8148E-01(WHEN MIN. R.F.=1)  AT K=   3, I=   2, J=  32


 TOTAL NUMBER OF POINT SOURCES/SINKS PRESENT IN THE FLOW MODEL =   240

 MAXIMUM STEPSIZE WHICH MEETS STABILITY CRITERION OF THE SINK & SOURCE TERM
 = 0.1000E+31(WHEN MIN. R.F.=1)  AT K=   0, I=   0, J=   0

 MAXIMUM STEPSIZE WHICH MEETS STABILITY CRITERION OF THE DISPERSION TERM
 = 0.5613E-02(WHEN MIN. R.F.=1)  AT K=   3, I=   2, J=  32
     1 CALLS TO GCG PACKAGE FOR TRANSPORT TIME STEP  10 IN FLOW TIME STEP  28 STRESS PERIOD   2
    15 TOTAL ITERATIONS



 >>>>>>>>>>>>>>>>>>>>>>>>>>>>>>>>>>>>>>>>>>>>>>>>>>>>>>>FOR COMPONENT NO. 01<<<<<<<<<<<<<<<<<<<<<<<<<<<<<<<<<<<<<<<<<<<<<<<<<<<<<<<


                                            -------------------------------------------
                                                      TRANSPORT STEP NO.   10
                                            -------------------------------------------

 TOTAL ELAPSED TIME SINCE BEGINNING OF SIMULATION =   28.89178    D   
 .....................................................................

                     CUMULATIVE MASS BUDGETS AT END OF TRANSPORT STEP   10, TIME STEP   28, STRESS PERIOD    2
                     ------------------------------------------------------------------------------------------

                                                             IN                           OUT
                                                      ----------------             ----------------
                               CONSTANT CONCENTRATION:    6102.130                   -2329.429    
                                        CONSTANT HEAD:    0.000000                    0.000000    
                               MASS STOR (FLOW MODEL):   0.1215737E-01              -0.3119412E-02
                                MASS STORAGE (SOLUTE):   0.5620034E-06               -3772.711    
                            ---------------------------------------------------------------------------
                                              [TOTAL]:    6102.142     KG            -6102.144     KG  

                                                          NET (IN - OUT):  -0.1826284E-02
                                                   DISCREPANCY (PERCENT):  -0.2992857E-04
 
 SOLVING FOR HEAD 
 FLOW MODEL IS TRANSIENT
 FLOW MODEL CONTAINS CONSTANT-HEAD CELLS


 MAXIMUM STEPSIZE DURING WHICH ANY PARTICLE CANNOT MOVE MORE THAN ONE CELL
 = 0.1189    (WHEN MIN. R.F.=1)  AT K=   3, I=   2, J=  33

 MAXIMUM STEPSIZE WHICH MEETS STABILITY CRITERION OF THE ADVECTION TERM
 (FOR PURE FINITE-DIFFERENCE OPTION, MIXELM=0) 
 = 0.8148E-01(WHEN MIN. R.F.=1)  AT K=   3, I=   2, J=  32


 TOTAL NUMBER OF POINT SOURCES/SINKS PRESENT IN THE FLOW MODEL =   240

 MAXIMUM STEPSIZE WHICH MEETS STABILITY CRITERION OF THE SINK & SOURCE TERM
 = 0.1000E+31(WHEN MIN. R.F.=1)  AT K=   0, I=   0, J=   0

 MAXIMUM STEPSIZE WHICH MEETS STABILITY CRITERION OF THE DISPERSION TERM
 = 0.5612E-02(WHEN MIN. R.F.=1)  AT K=   3, I=   2, J=  32
     1 CALLS TO GCG PACKAGE FOR TRANSPORT TIME STEP  11 IN FLOW TIME STEP  28 STRESS PERIOD   2
    15 TOTAL ITERATIONS
 
 SOLVING FOR HEAD 
 FLOW MODEL IS TRANSIENT
 FLOW MODEL CONTAINS CONSTANT-HEAD CELLS


 MAXIMUM STEPSIZE DURING WHICH ANY PARTICLE CANNOT MOVE MORE THAN ONE CELL
 = 0.1189    (WHEN MIN. R.F.=1)  AT K=   3, I=   2, J=  33

 MAXIMUM STEPSIZE WHICH MEETS STABILITY CRITERION OF THE ADVECTION TERM
 (FOR PURE FINITE-DIFFERENCE OPTION, MIXELM=0) 
 = 0.8148E-01(WHEN MIN. R.F.=1)  AT K=   3, I=   2, J=  32


 TOTAL NUMBER OF POINT SOURCES/SINKS PRESENT IN THE FLOW MODEL =   240

 MAXIMUM STEPSIZE WHICH MEETS STABILITY CRITERION OF THE SINK & SOURCE TERM
 = 0.1000E+31(WHEN MIN. R.F.=1)  AT K=   0, I=   0, J=   0

 MAXIMUM STEPSIZE WHICH MEETS STABILITY CRITERION OF THE DISPERSION TERM
 = 0.5612E-02(WHEN MIN. R.F.=1)  AT K=   3, I=   2, J=  32
     1 CALLS TO GCG PACKAGE FOR TRANSPORT TIME STEP  12 IN FLOW TIME STEP  28 STRESS PERIOD   2
     8 TOTAL ITERATIONS
  MAXIMUM CONCENTRATION CHANGES FOR EACH ITERATION:
  MAX. CHANGE LAYER,ROW,COL MAX. CHANGE LAYER,ROW,COL MAX. CHANGE LAYER,ROW,COL MAX. CHANGE LAYER,ROW,COL MAX. CHANGE LAYER,ROW,COL
 ------------------------------------------------------------------------------------------------------------------------------------
   0.2930E-03 ( 13,  2, 57)  0.3985E-04 (  6,  2, 60)  0.5440E-05 (  5,  2, 57)  0.2173E-05 (  3,  2, 33)  0.9700E-06 (  4,  2, 33)
   0.3802E-06 (  3,  2, 33)  0.1008E-06 (  2,  2, 33)  0.3698E-07 (  3,  2, 33)


                                          ================================================
                                                         FROM TIME =   29.000     TO    30.000    

 
 SOLVING FOR HEAD 
 FLOW MODEL IS TRANSIENT
 FLOW MODEL CONTAINS CONSTANT-HEAD CELLS


 MAXIMUM STEPSIZE DURING WHICH ANY PARTICLE CANNOT MOVE MORE THAN ONE CELL
 = 0.1189    (WHEN MIN. R.F.=1)  AT K=   3, I=   2, J=  33

 MAXIMUM STEPSIZE WHICH MEETS STABILITY CRITERION OF THE ADVECTION TERM
 (FOR PURE FINITE-DIFFERENCE OPTION, MIXELM=0) 
 = 0.8148E-01(WHEN MIN. R.F.=1)  AT K=   3, I=   2, J=  32


 TOTAL NUMBER OF POINT SOURCES/SINKS PRESENT IN THE FLOW MODEL =   240

 MAXIMUM STEPSIZE WHICH MEETS STABILITY CRITERION OF THE SINK & SOURCE TERM
 = 0.1000E+31(WHEN MIN. R.F.=1)  AT K=   0, I=   0, J=   0

 MAXIMUM STEPSIZE WHICH MEETS STABILITY CRITERION OF THE DISPERSION TERM
 = 0.5612E-02(WHEN MIN. R.F.=1)  AT K=   3, I=   2, J=  32


     1 CALLS TO GCG PACKAGE FOR TRANSPORT TIME STEP   1 IN FLOW TIME STEP  29 STRESS PERIOD   2
    15 TOTAL ITERATIONS

 NO OUTPUT CONTROL FOR STRESS PERIOD    2   TIME STEP  29
 
 SOLVING FOR HEAD 
 FLOW MODEL IS TRANSIENT
 FLOW MODEL CONTAINS CONSTANT-HEAD CELLS


 MAXIMUM STEPSIZE DURING WHICH ANY PARTICLE CANNOT MOVE MORE THAN ONE CELL
 = 0.1189    (WHEN MIN. R.F.=1)  AT K=   3, I=   2, J=  33

 MAXIMUM STEPSIZE WHICH MEETS STABILITY CRITERION OF THE ADVECTION TERM
 (FOR PURE FINITE-DIFFERENCE OPTION, MIXELM=0) 
 = 0.8148E-01(WHEN MIN. R.F.=1)  AT K=   3, I=   2, J=  32


 TOTAL NUMBER OF POINT SOURCES/SINKS PRESENT IN THE FLOW MODEL =   240

 MAXIMUM STEPSIZE WHICH MEETS STABILITY CRITERION OF THE SINK & SOURCE TERM
 = 0.1000E+31(WHEN MIN. R.F.=1)  AT K=   0, I=   0, J=   0

 MAXIMUM STEPSIZE WHICH MEETS STABILITY CRITERION OF THE DISPERSION TERM
 = 0.5612E-02(WHEN MIN. R.F.=1)  AT K=   3, I=   2, J=  32
     1 CALLS TO GCG PACKAGE FOR TRANSPORT TIME STEP   2 IN FLOW TIME STEP  29 STRESS PERIOD   2
    15 TOTAL ITERATIONS
 
 SOLVING FOR HEAD 
 FLOW MODEL IS TRANSIENT
 FLOW MODEL CONTAINS CONSTANT-HEAD CELLS


 MAXIMUM STEPSIZE DURING WHICH ANY PARTICLE CANNOT MOVE MORE THAN ONE CELL
 = 0.1189    (WHEN MIN. R.F.=1)  AT K=   3, I=   2, J=  33

 MAXIMUM STEPSIZE WHICH MEETS STABILITY CRITERION OF THE ADVECTION TERM
 (FOR PURE FINITE-DIFFERENCE OPTION, MIXELM=0) 
 = 0.8148E-01(WHEN MIN. R.F.=1)  AT K=   3, I=   2, J=  32


 TOTAL NUMBER OF POINT SOURCES/SINKS PRESENT IN THE FLOW MODEL =   240

 MAXIMUM STEPSIZE WHICH MEETS STABILITY CRITERION OF THE SINK & SOURCE TERM
 = 0.1000E+31(WHEN MIN. R.F.=1)  AT K=   0, I=   0, J=   0

 MAXIMUM STEPSIZE WHICH MEETS STABILITY CRITERION OF THE DISPERSION TERM
 = 0.5612E-02(WHEN MIN. R.F.=1)  AT K=   3, I=   2, J=  32
     1 CALLS TO GCG PACKAGE FOR TRANSPORT TIME STEP   3 IN FLOW TIME STEP  29 STRESS PERIOD   2
    14 TOTAL ITERATIONS
 
 SOLVING FOR HEAD 
 FLOW MODEL IS TRANSIENT
 FLOW MODEL CONTAINS CONSTANT-HEAD CELLS


 MAXIMUM STEPSIZE DURING WHICH ANY PARTICLE CANNOT MOVE MORE THAN ONE CELL
 = 0.1189    (WHEN MIN. R.F.=1)  AT K=   3, I=   2, J=  33

 MAXIMUM STEPSIZE WHICH MEETS STABILITY CRITERION OF THE ADVECTION TERM
 (FOR PURE FINITE-DIFFERENCE OPTION, MIXELM=0) 
 = 0.8148E-01(WHEN MIN. R.F.=1)  AT K=   3, I=   2, J=  32


 TOTAL NUMBER OF POINT SOURCES/SINKS PRESENT IN THE FLOW MODEL =   240

 MAXIMUM STEPSIZE WHICH MEETS STABILITY CRITERION OF THE SINK & SOURCE TERM
 = 0.1000E+31(WHEN MIN. R.F.=1)  AT K=   0, I=   0, J=   0

 MAXIMUM STEPSIZE WHICH MEETS STABILITY CRITERION OF THE DISPERSION TERM
 = 0.5612E-02(WHEN MIN. R.F.=1)  AT K=   3, I=   2, J=  32
     1 CALLS TO GCG PACKAGE FOR TRANSPORT TIME STEP   4 IN FLOW TIME STEP  29 STRESS PERIOD   2
    14 TOTAL ITERATIONS
 
 SOLVING FOR HEAD 
 FLOW MODEL IS TRANSIENT
 FLOW MODEL CONTAINS CONSTANT-HEAD CELLS


 MAXIMUM STEPSIZE DURING WHICH ANY PARTICLE CANNOT MOVE MORE THAN ONE CELL
 = 0.1189    (WHEN MIN. R.F.=1)  AT K=   3, I=   2, J=  33

 MAXIMUM STEPSIZE WHICH MEETS STABILITY CRITERION OF THE ADVECTION TERM
 (FOR PURE FINITE-DIFFERENCE OPTION, MIXELM=0) 
 = 0.8148E-01(WHEN MIN. R.F.=1)  AT K=   3, I=   2, J=  32


 TOTAL NUMBER OF POINT SOURCES/SINKS PRESENT IN THE FLOW MODEL =   240

 MAXIMUM STEPSIZE WHICH MEETS STABILITY CRITERION OF THE SINK & SOURCE TERM
 = 0.1000E+31(WHEN MIN. R.F.=1)  AT K=   0, I=   0, J=   0

 MAXIMUM STEPSIZE WHICH MEETS STABILITY CRITERION OF THE DISPERSION TERM
 = 0.5612E-02(WHEN MIN. R.F.=1)  AT K=   3, I=   2, J=  32
     1 CALLS TO GCG PACKAGE FOR TRANSPORT TIME STEP   5 IN FLOW TIME STEP  29 STRESS PERIOD   2
    14 TOTAL ITERATIONS
 
 SOLVING FOR HEAD 
 FLOW MODEL IS TRANSIENT
 FLOW MODEL CONTAINS CONSTANT-HEAD CELLS


 MAXIMUM STEPSIZE DURING WHICH ANY PARTICLE CANNOT MOVE MORE THAN ONE CELL
 = 0.1189    (WHEN MIN. R.F.=1)  AT K=   3, I=   2, J=  33

 MAXIMUM STEPSIZE WHICH MEETS STABILITY CRITERION OF THE ADVECTION TERM
 (FOR PURE FINITE-DIFFERENCE OPTION, MIXELM=0) 
 = 0.8148E-01(WHEN MIN. R.F.=1)  AT K=   3, I=   2, J=  32


 TOTAL NUMBER OF POINT SOURCES/SINKS PRESENT IN THE FLOW MODEL =   240

 MAXIMUM STEPSIZE WHICH MEETS STABILITY CRITERION OF THE SINK & SOURCE TERM
 = 0.1000E+31(WHEN MIN. R.F.=1)  AT K=   0, I=   0, J=   0

 MAXIMUM STEPSIZE WHICH MEETS STABILITY CRITERION OF THE DISPERSION TERM
 = 0.5612E-02(WHEN MIN. R.F.=1)  AT K=   3, I=   2, J=  32
     1 CALLS TO GCG PACKAGE FOR TRANSPORT TIME STEP   6 IN FLOW TIME STEP  29 STRESS PERIOD   2
    14 TOTAL ITERATIONS
 
 SOLVING FOR HEAD 
 FLOW MODEL IS TRANSIENT
 FLOW MODEL CONTAINS CONSTANT-HEAD CELLS


 MAXIMUM STEPSIZE DURING WHICH ANY PARTICLE CANNOT MOVE MORE THAN ONE CELL
 = 0.1189    (WHEN MIN. R.F.=1)  AT K=   3, I=   2, J=  33

 MAXIMUM STEPSIZE WHICH MEETS STABILITY CRITERION OF THE ADVECTION TERM
 (FOR PURE FINITE-DIFFERENCE OPTION, MIXELM=0) 
 = 0.8148E-01(WHEN MIN. R.F.=1)  AT K=   3, I=   2, J=  32


 TOTAL NUMBER OF POINT SOURCES/SINKS PRESENT IN THE FLOW MODEL =   240

 MAXIMUM STEPSIZE WHICH MEETS STABILITY CRITERION OF THE SINK & SOURCE TERM
 = 0.1000E+31(WHEN MIN. R.F.=1)  AT K=   0, I=   0, J=   0

 MAXIMUM STEPSIZE WHICH MEETS STABILITY CRITERION OF THE DISPERSION TERM
 = 0.5612E-02(WHEN MIN. R.F.=1)  AT K=   3, I=   2, J=  32
     1 CALLS TO GCG PACKAGE FOR TRANSPORT TIME STEP   7 IN FLOW TIME STEP  29 STRESS PERIOD   2
    14 TOTAL ITERATIONS
 
 SOLVING FOR HEAD 
 FLOW MODEL IS TRANSIENT
 FLOW MODEL CONTAINS CONSTANT-HEAD CELLS


 MAXIMUM STEPSIZE DURING WHICH ANY PARTICLE CANNOT MOVE MORE THAN ONE CELL
 = 0.1189    (WHEN MIN. R.F.=1)  AT K=   3, I=   2, J=  33

 MAXIMUM STEPSIZE WHICH MEETS STABILITY CRITERION OF THE ADVECTION TERM
 (FOR PURE FINITE-DIFFERENCE OPTION, MIXELM=0) 
 = 0.8148E-01(WHEN MIN. R.F.=1)  AT K=   3, I=   2, J=  32


 TOTAL NUMBER OF POINT SOURCES/SINKS PRESENT IN THE FLOW MODEL =   240

 MAXIMUM STEPSIZE WHICH MEETS STABILITY CRITERION OF THE SINK & SOURCE TERM
 = 0.1000E+31(WHEN MIN. R.F.=1)  AT K=   0, I=   0, J=   0

 MAXIMUM STEPSIZE WHICH MEETS STABILITY CRITERION OF THE DISPERSION TERM
 = 0.5612E-02(WHEN MIN. R.F.=1)  AT K=   3, I=   2, J=  32
     1 CALLS TO GCG PACKAGE FOR TRANSPORT TIME STEP   8 IN FLOW TIME STEP  29 STRESS PERIOD   2
    14 TOTAL ITERATIONS
 
 SOLVING FOR HEAD 
 FLOW MODEL IS TRANSIENT
 FLOW MODEL CONTAINS CONSTANT-HEAD CELLS


 MAXIMUM STEPSIZE DURING WHICH ANY PARTICLE CANNOT MOVE MORE THAN ONE CELL
 = 0.1189    (WHEN MIN. R.F.=1)  AT K=   3, I=   2, J=  33

 MAXIMUM STEPSIZE WHICH MEETS STABILITY CRITERION OF THE ADVECTION TERM
 (FOR PURE FINITE-DIFFERENCE OPTION, MIXELM=0) 
 = 0.8147E-01(WHEN MIN. R.F.=1)  AT K=   3, I=   2, J=  32


 TOTAL NUMBER OF POINT SOURCES/SINKS PRESENT IN THE FLOW MODEL =   240

 MAXIMUM STEPSIZE WHICH MEETS STABILITY CRITERION OF THE SINK & SOURCE TERM
 = 0.1000E+31(WHEN MIN. R.F.=1)  AT K=   0, I=   0, J=   0

 MAXIMUM STEPSIZE WHICH MEETS STABILITY CRITERION OF THE DISPERSION TERM
 = 0.5612E-02(WHEN MIN. R.F.=1)  AT K=   3, I=   2, J=  32
     1 CALLS TO GCG PACKAGE FOR TRANSPORT TIME STEP   9 IN FLOW TIME STEP  29 STRESS PERIOD   2
    14 TOTAL ITERATIONS
 
 SOLVING FOR HEAD 
 FLOW MODEL IS TRANSIENT
 FLOW MODEL CONTAINS CONSTANT-HEAD CELLS


 MAXIMUM STEPSIZE DURING WHICH ANY PARTICLE CANNOT MOVE MORE THAN ONE CELL
 = 0.1189    (WHEN MIN. R.F.=1)  AT K=   3, I=   2, J=  33

 MAXIMUM STEPSIZE WHICH MEETS STABILITY CRITERION OF THE ADVECTION TERM
 (FOR PURE FINITE-DIFFERENCE OPTION, MIXELM=0) 
 = 0.8147E-01(WHEN MIN. R.F.=1)  AT K=   3, I=   2, J=  32


 TOTAL NUMBER OF POINT SOURCES/SINKS PRESENT IN THE FLOW MODEL =   240

 MAXIMUM STEPSIZE WHICH MEETS STABILITY CRITERION OF THE SINK & SOURCE TERM
 = 0.1000E+31(WHEN MIN. R.F.=1)  AT K=   0, I=   0, J=   0

 MAXIMUM STEPSIZE WHICH MEETS STABILITY CRITERION OF THE DISPERSION TERM
 = 0.5612E-02(WHEN MIN. R.F.=1)  AT K=   3, I=   2, J=  32
     1 CALLS TO GCG PACKAGE FOR TRANSPORT TIME STEP  10 IN FLOW TIME STEP  29 STRESS PERIOD   2
    14 TOTAL ITERATIONS



 >>>>>>>>>>>>>>>>>>>>>>>>>>>>>>>>>>>>>>>>>>>>>>>>>>>>>>>FOR COMPONENT NO. 01<<<<<<<<<<<<<<<<<<<<<<<<<<<<<<<<<<<<<<<<<<<<<<<<<<<<<<<


                                            -------------------------------------------
                                                      TRANSPORT STEP NO.   10
                                            -------------------------------------------

 TOTAL ELAPSED TIME SINCE BEGINNING OF SIMULATION =   29.89172    D   
 .....................................................................

                     CUMULATIVE MASS BUDGETS AT END OF TRANSPORT STEP   10, TIME STEP   29, STRESS PERIOD    2
                     ------------------------------------------------------------------------------------------

                                                             IN                           OUT
                                                      ----------------             ----------------
                               CONSTANT CONCENTRATION:    6232.899                   -2420.229    
                                        CONSTANT HEAD:    0.000000                    0.000000    
                               MASS STOR (FLOW MODEL):   0.1217693E-01              -0.3132895E-02
                                MASS STORAGE (SOLUTE):   0.5620034E-06               -3812.681    
                            ---------------------------------------------------------------------------
                                              [TOTAL]:    6232.911     KG            -6232.913     KG  

                                                          NET (IN - OUT):  -0.1899727E-02
                                                   DISCREPANCY (PERCENT):  -0.3047896E-04
 
 SOLVING FOR HEAD 
 FLOW MODEL IS TRANSIENT
 FLOW MODEL CONTAINS CONSTANT-HEAD CELLS


 MAXIMUM STEPSIZE DURING WHICH ANY PARTICLE CANNOT MOVE MORE THAN ONE CELL
 = 0.1189    (WHEN MIN. R.F.=1)  AT K=   3, I=   2, J=  33

 MAXIMUM STEPSIZE WHICH MEETS STABILITY CRITERION OF THE ADVECTION TERM
 (FOR PURE FINITE-DIFFERENCE OPTION, MIXELM=0) 
 = 0.8147E-01(WHEN MIN. R.F.=1)  AT K=   3, I=   2, J=  32


 TOTAL NUMBER OF POINT SOURCES/SINKS PRESENT IN THE FLOW MODEL =   240

 MAXIMUM STEPSIZE WHICH MEETS STABILITY CRITERION OF THE SINK & SOURCE TERM
 = 0.1000E+31(WHEN MIN. R.F.=1)  AT K=   0, I=   0, J=   0

 MAXIMUM STEPSIZE WHICH MEETS STABILITY CRITERION OF THE DISPERSION TERM
 = 0.5612E-02(WHEN MIN. R.F.=1)  AT K=   3, I=   2, J=  32
     1 CALLS TO GCG PACKAGE FOR TRANSPORT TIME STEP  11 IN FLOW TIME STEP  29 STRESS PERIOD   2
    14 TOTAL ITERATIONS
 
 SOLVING FOR HEAD 
 FLOW MODEL IS TRANSIENT
 FLOW MODEL CONTAINS CONSTANT-HEAD CELLS


 MAXIMUM STEPSIZE DURING WHICH ANY PARTICLE CANNOT MOVE MORE THAN ONE CELL
 = 0.1189    (WHEN MIN. R.F.=1)  AT K=   3, I=   2, J=  33

 MAXIMUM STEPSIZE WHICH MEETS STABILITY CRITERION OF THE ADVECTION TERM
 (FOR PURE FINITE-DIFFERENCE OPTION, MIXELM=0) 
 = 0.8147E-01(WHEN MIN. R.F.=1)  AT K=   3, I=   2, J=  32


 TOTAL NUMBER OF POINT SOURCES/SINKS PRESENT IN THE FLOW MODEL =   240

 MAXIMUM STEPSIZE WHICH MEETS STABILITY CRITERION OF THE SINK & SOURCE TERM
 = 0.1000E+31(WHEN MIN. R.F.=1)  AT K=   0, I=   0, J=   0

 MAXIMUM STEPSIZE WHICH MEETS STABILITY CRITERION OF THE DISPERSION TERM
 = 0.5612E-02(WHEN MIN. R.F.=1)  AT K=   3, I=   2, J=  32
     1 CALLS TO GCG PACKAGE FOR TRANSPORT TIME STEP  12 IN FLOW TIME STEP  29 STRESS PERIOD   2
     7 TOTAL ITERATIONS
  MAXIMUM CONCENTRATION CHANGES FOR EACH ITERATION:
  MAX. CHANGE LAYER,ROW,COL MAX. CHANGE LAYER,ROW,COL MAX. CHANGE LAYER,ROW,COL MAX. CHANGE LAYER,ROW,COL MAX. CHANGE LAYER,ROW,COL
 ------------------------------------------------------------------------------------------------------------------------------------
   0.2842E-03 ( 13,  2, 57)  0.3786E-04 (  6,  2, 60)  0.5193E-05 (  5,  2, 57)  0.2008E-05 (  3,  2, 33)  0.8936E-06 (  4,  2, 33)
   0.3462E-06 (  3,  2, 33)  0.9109E-07 (  2,  2, 33)


                                          ================================================
                                                         FROM TIME =   30.000     TO    31.000    

 
 SOLVING FOR HEAD 
 FLOW MODEL IS TRANSIENT
 FLOW MODEL CONTAINS CONSTANT-HEAD CELLS


 MAXIMUM STEPSIZE DURING WHICH ANY PARTICLE CANNOT MOVE MORE THAN ONE CELL
 = 0.1189    (WHEN MIN. R.F.=1)  AT K=   3, I=   2, J=  33

 MAXIMUM STEPSIZE WHICH MEETS STABILITY CRITERION OF THE ADVECTION TERM
 (FOR PURE FINITE-DIFFERENCE OPTION, MIXELM=0) 
 = 0.8147E-01(WHEN MIN. R.F.=1)  AT K=   3, I=   2, J=  32


 TOTAL NUMBER OF POINT SOURCES/SINKS PRESENT IN THE FLOW MODEL =   240

 MAXIMUM STEPSIZE WHICH MEETS STABILITY CRITERION OF THE SINK & SOURCE TERM
 = 0.1000E+31(WHEN MIN. R.F.=1)  AT K=   0, I=   0, J=   0

 MAXIMUM STEPSIZE WHICH MEETS STABILITY CRITERION OF THE DISPERSION TERM
 = 0.5612E-02(WHEN MIN. R.F.=1)  AT K=   3, I=   2, J=  32


     1 CALLS TO GCG PACKAGE FOR TRANSPORT TIME STEP   1 IN FLOW TIME STEP  30 STRESS PERIOD   2
    14 TOTAL ITERATIONS

 NO OUTPUT CONTROL FOR STRESS PERIOD    2   TIME STEP  30
 
 SOLVING FOR HEAD 
 FLOW MODEL IS TRANSIENT
 FLOW MODEL CONTAINS CONSTANT-HEAD CELLS


 MAXIMUM STEPSIZE DURING WHICH ANY PARTICLE CANNOT MOVE MORE THAN ONE CELL
 = 0.1189    (WHEN MIN. R.F.=1)  AT K=   3, I=   2, J=  33

 MAXIMUM STEPSIZE WHICH MEETS STABILITY CRITERION OF THE ADVECTION TERM
 (FOR PURE FINITE-DIFFERENCE OPTION, MIXELM=0) 
 = 0.8147E-01(WHEN MIN. R.F.=1)  AT K=   3, I=   2, J=  32


 TOTAL NUMBER OF POINT SOURCES/SINKS PRESENT IN THE FLOW MODEL =   240

 MAXIMUM STEPSIZE WHICH MEETS STABILITY CRITERION OF THE SINK & SOURCE TERM
 = 0.1000E+31(WHEN MIN. R.F.=1)  AT K=   0, I=   0, J=   0

 MAXIMUM STEPSIZE WHICH MEETS STABILITY CRITERION OF THE DISPERSION TERM
 = 0.5612E-02(WHEN MIN. R.F.=1)  AT K=   3, I=   2, J=  32
     1 CALLS TO GCG PACKAGE FOR TRANSPORT TIME STEP   2 IN FLOW TIME STEP  30 STRESS PERIOD   2
    14 TOTAL ITERATIONS
 
 SOLVING FOR HEAD 
 FLOW MODEL IS TRANSIENT
 FLOW MODEL CONTAINS CONSTANT-HEAD CELLS


 MAXIMUM STEPSIZE DURING WHICH ANY PARTICLE CANNOT MOVE MORE THAN ONE CELL
 = 0.1189    (WHEN MIN. R.F.=1)  AT K=   3, I=   2, J=  33

 MAXIMUM STEPSIZE WHICH MEETS STABILITY CRITERION OF THE ADVECTION TERM
 (FOR PURE FINITE-DIFFERENCE OPTION, MIXELM=0) 
 = 0.8147E-01(WHEN MIN. R.F.=1)  AT K=   3, I=   2, J=  32


 TOTAL NUMBER OF POINT SOURCES/SINKS PRESENT IN THE FLOW MODEL =   240

 MAXIMUM STEPSIZE WHICH MEETS STABILITY CRITERION OF THE SINK & SOURCE TERM
 = 0.1000E+31(WHEN MIN. R.F.=1)  AT K=   0, I=   0, J=   0

 MAXIMUM STEPSIZE WHICH MEETS STABILITY CRITERION OF THE DISPERSION TERM
 = 0.5612E-02(WHEN MIN. R.F.=1)  AT K=   3, I=   2, J=  32
     1 CALLS TO GCG PACKAGE FOR TRANSPORT TIME STEP   3 IN FLOW TIME STEP  30 STRESS PERIOD   2
    14 TOTAL ITERATIONS
 
 SOLVING FOR HEAD 
 FLOW MODEL IS TRANSIENT
 FLOW MODEL CONTAINS CONSTANT-HEAD CELLS


 MAXIMUM STEPSIZE DURING WHICH ANY PARTICLE CANNOT MOVE MORE THAN ONE CELL
 = 0.1189    (WHEN MIN. R.F.=1)  AT K=   3, I=   2, J=  33

 MAXIMUM STEPSIZE WHICH MEETS STABILITY CRITERION OF THE ADVECTION TERM
 (FOR PURE FINITE-DIFFERENCE OPTION, MIXELM=0) 
 = 0.8147E-01(WHEN MIN. R.F.=1)  AT K=   3, I=   2, J=  32


 TOTAL NUMBER OF POINT SOURCES/SINKS PRESENT IN THE FLOW MODEL =   240

 MAXIMUM STEPSIZE WHICH MEETS STABILITY CRITERION OF THE SINK & SOURCE TERM
 = 0.1000E+31(WHEN MIN. R.F.=1)  AT K=   0, I=   0, J=   0

 MAXIMUM STEPSIZE WHICH MEETS STABILITY CRITERION OF THE DISPERSION TERM
 = 0.5612E-02(WHEN MIN. R.F.=1)  AT K=   3, I=   2, J=  32
     1 CALLS TO GCG PACKAGE FOR TRANSPORT TIME STEP   4 IN FLOW TIME STEP  30 STRESS PERIOD   2
    14 TOTAL ITERATIONS
 
 SOLVING FOR HEAD 
 FLOW MODEL IS TRANSIENT
 FLOW MODEL CONTAINS CONSTANT-HEAD CELLS


 MAXIMUM STEPSIZE DURING WHICH ANY PARTICLE CANNOT MOVE MORE THAN ONE CELL
 = 0.1189    (WHEN MIN. R.F.=1)  AT K=   3, I=   2, J=  33

 MAXIMUM STEPSIZE WHICH MEETS STABILITY CRITERION OF THE ADVECTION TERM
 (FOR PURE FINITE-DIFFERENCE OPTION, MIXELM=0) 
 = 0.8147E-01(WHEN MIN. R.F.=1)  AT K=   3, I=   2, J=  32


 TOTAL NUMBER OF POINT SOURCES/SINKS PRESENT IN THE FLOW MODEL =   240

 MAXIMUM STEPSIZE WHICH MEETS STABILITY CRITERION OF THE SINK & SOURCE TERM
 = 0.1000E+31(WHEN MIN. R.F.=1)  AT K=   0, I=   0, J=   0

 MAXIMUM STEPSIZE WHICH MEETS STABILITY CRITERION OF THE DISPERSION TERM
 = 0.5612E-02(WHEN MIN. R.F.=1)  AT K=   3, I=   2, J=  32
     1 CALLS TO GCG PACKAGE FOR TRANSPORT TIME STEP   5 IN FLOW TIME STEP  30 STRESS PERIOD   2
    14 TOTAL ITERATIONS
 
 SOLVING FOR HEAD 
 FLOW MODEL IS TRANSIENT
 FLOW MODEL CONTAINS CONSTANT-HEAD CELLS


 MAXIMUM STEPSIZE DURING WHICH ANY PARTICLE CANNOT MOVE MORE THAN ONE CELL
 = 0.1189    (WHEN MIN. R.F.=1)  AT K=   3, I=   2, J=  33

 MAXIMUM STEPSIZE WHICH MEETS STABILITY CRITERION OF THE ADVECTION TERM
 (FOR PURE FINITE-DIFFERENCE OPTION, MIXELM=0) 
 = 0.8147E-01(WHEN MIN. R.F.=1)  AT K=   3, I=   2, J=  32


 TOTAL NUMBER OF POINT SOURCES/SINKS PRESENT IN THE FLOW MODEL =   240

 MAXIMUM STEPSIZE WHICH MEETS STABILITY CRITERION OF THE SINK & SOURCE TERM
 = 0.1000E+31(WHEN MIN. R.F.=1)  AT K=   0, I=   0, J=   0

 MAXIMUM STEPSIZE WHICH MEETS STABILITY CRITERION OF THE DISPERSION TERM
 = 0.5612E-02(WHEN MIN. R.F.=1)  AT K=   3, I=   2, J=  32
     1 CALLS TO GCG PACKAGE FOR TRANSPORT TIME STEP   6 IN FLOW TIME STEP  30 STRESS PERIOD   2
    14 TOTAL ITERATIONS
 
 SOLVING FOR HEAD 
 FLOW MODEL IS TRANSIENT
 FLOW MODEL CONTAINS CONSTANT-HEAD CELLS


 MAXIMUM STEPSIZE DURING WHICH ANY PARTICLE CANNOT MOVE MORE THAN ONE CELL
 = 0.1189    (WHEN MIN. R.F.=1)  AT K=   3, I=   2, J=  33

 MAXIMUM STEPSIZE WHICH MEETS STABILITY CRITERION OF THE ADVECTION TERM
 (FOR PURE FINITE-DIFFERENCE OPTION, MIXELM=0) 
 = 0.8147E-01(WHEN MIN. R.F.=1)  AT K=   3, I=   2, J=  32


 TOTAL NUMBER OF POINT SOURCES/SINKS PRESENT IN THE FLOW MODEL =   240

 MAXIMUM STEPSIZE WHICH MEETS STABILITY CRITERION OF THE SINK & SOURCE TERM
 = 0.1000E+31(WHEN MIN. R.F.=1)  AT K=   0, I=   0, J=   0

 MAXIMUM STEPSIZE WHICH MEETS STABILITY CRITERION OF THE DISPERSION TERM
 = 0.5612E-02(WHEN MIN. R.F.=1)  AT K=   3, I=   2, J=  32
     1 CALLS TO GCG PACKAGE FOR TRANSPORT TIME STEP   7 IN FLOW TIME STEP  30 STRESS PERIOD   2
    14 TOTAL ITERATIONS
 
 SOLVING FOR HEAD 
 FLOW MODEL IS TRANSIENT
 FLOW MODEL CONTAINS CONSTANT-HEAD CELLS


 MAXIMUM STEPSIZE DURING WHICH ANY PARTICLE CANNOT MOVE MORE THAN ONE CELL
 = 0.1189    (WHEN MIN. R.F.=1)  AT K=   3, I=   2, J=  33

 MAXIMUM STEPSIZE WHICH MEETS STABILITY CRITERION OF THE ADVECTION TERM
 (FOR PURE FINITE-DIFFERENCE OPTION, MIXELM=0) 
 = 0.8147E-01(WHEN MIN. R.F.=1)  AT K=   3, I=   2, J=  32


 TOTAL NUMBER OF POINT SOURCES/SINKS PRESENT IN THE FLOW MODEL =   240

 MAXIMUM STEPSIZE WHICH MEETS STABILITY CRITERION OF THE SINK & SOURCE TERM
 = 0.1000E+31(WHEN MIN. R.F.=1)  AT K=   0, I=   0, J=   0

 MAXIMUM STEPSIZE WHICH MEETS STABILITY CRITERION OF THE DISPERSION TERM
 = 0.5612E-02(WHEN MIN. R.F.=1)  AT K=   3, I=   2, J=  32
     1 CALLS TO GCG PACKAGE FOR TRANSPORT TIME STEP   8 IN FLOW TIME STEP  30 STRESS PERIOD   2
    14 TOTAL ITERATIONS
 
 SOLVING FOR HEAD 
 FLOW MODEL IS TRANSIENT
 FLOW MODEL CONTAINS CONSTANT-HEAD CELLS


 MAXIMUM STEPSIZE DURING WHICH ANY PARTICLE CANNOT MOVE MORE THAN ONE CELL
 = 0.1189    (WHEN MIN. R.F.=1)  AT K=   3, I=   2, J=  33

 MAXIMUM STEPSIZE WHICH MEETS STABILITY CRITERION OF THE ADVECTION TERM
 (FOR PURE FINITE-DIFFERENCE OPTION, MIXELM=0) 
 = 0.8147E-01(WHEN MIN. R.F.=1)  AT K=   3, I=   2, J=  32


 TOTAL NUMBER OF POINT SOURCES/SINKS PRESENT IN THE FLOW MODEL =   240

 MAXIMUM STEPSIZE WHICH MEETS STABILITY CRITERION OF THE SINK & SOURCE TERM
 = 0.1000E+31(WHEN MIN. R.F.=1)  AT K=   0, I=   0, J=   0

 MAXIMUM STEPSIZE WHICH MEETS STABILITY CRITERION OF THE DISPERSION TERM
 = 0.5612E-02(WHEN MIN. R.F.=1)  AT K=   3, I=   2, J=  32
     1 CALLS TO GCG PACKAGE FOR TRANSPORT TIME STEP   9 IN FLOW TIME STEP  30 STRESS PERIOD   2
    14 TOTAL ITERATIONS
 
 SOLVING FOR HEAD 
 FLOW MODEL IS TRANSIENT
 FLOW MODEL CONTAINS CONSTANT-HEAD CELLS


 MAXIMUM STEPSIZE DURING WHICH ANY PARTICLE CANNOT MOVE MORE THAN ONE CELL
 = 0.1189    (WHEN MIN. R.F.=1)  AT K=   3, I=   2, J=  33

 MAXIMUM STEPSIZE WHICH MEETS STABILITY CRITERION OF THE ADVECTION TERM
 (FOR PURE FINITE-DIFFERENCE OPTION, MIXELM=0) 
 = 0.8147E-01(WHEN MIN. R.F.=1)  AT K=   3, I=   2, J=  32


 TOTAL NUMBER OF POINT SOURCES/SINKS PRESENT IN THE FLOW MODEL =   240

 MAXIMUM STEPSIZE WHICH MEETS STABILITY CRITERION OF THE SINK & SOURCE TERM
 = 0.1000E+31(WHEN MIN. R.F.=1)  AT K=   0, I=   0, J=   0

 MAXIMUM STEPSIZE WHICH MEETS STABILITY CRITERION OF THE DISPERSION TERM
 = 0.5612E-02(WHEN MIN. R.F.=1)  AT K=   3, I=   2, J=  32
     1 CALLS TO GCG PACKAGE FOR TRANSPORT TIME STEP  10 IN FLOW TIME STEP  30 STRESS PERIOD   2
    14 TOTAL ITERATIONS



 >>>>>>>>>>>>>>>>>>>>>>>>>>>>>>>>>>>>>>>>>>>>>>>>>>>>>>>FOR COMPONENT NO. 01<<<<<<<<<<<<<<<<<<<<<<<<<<<<<<<<<<<<<<<<<<<<<<<<<<<<<<<


                                            -------------------------------------------
                                                      TRANSPORT STEP NO.   10
                                            -------------------------------------------

 TOTAL ELAPSED TIME SINCE BEGINNING OF SIMULATION =   30.89167    D   
 .....................................................................

                     CUMULATIVE MASS BUDGETS AT END OF TRANSPORT STEP   10, TIME STEP   30, STRESS PERIOD    2
                     ------------------------------------------------------------------------------------------

                                                             IN                           OUT
                                                      ----------------             ----------------
                               CONSTANT CONCENTRATION:    6362.255                   -2511.148    
                                        CONSTANT HEAD:    0.000000                    0.000000    
                               MASS STOR (FLOW MODEL):   0.1219662E-01              -0.3145517E-02
                                MASS STORAGE (SOLUTE):   0.2017620E-04               -3851.117    
                            ---------------------------------------------------------------------------
                                              [TOTAL]:    6362.267     KG            -6362.269     KG  

                                                          NET (IN - OUT):  -0.1973195E-02
                                                   DISCREPANCY (PERCENT):  -0.3101401E-04
 
 SOLVING FOR HEAD 
 FLOW MODEL IS TRANSIENT
 FLOW MODEL CONTAINS CONSTANT-HEAD CELLS


 MAXIMUM STEPSIZE DURING WHICH ANY PARTICLE CANNOT MOVE MORE THAN ONE CELL
 = 0.1189    (WHEN MIN. R.F.=1)  AT K=   3, I=   2, J=  33

 MAXIMUM STEPSIZE WHICH MEETS STABILITY CRITERION OF THE ADVECTION TERM
 (FOR PURE FINITE-DIFFERENCE OPTION, MIXELM=0) 
 = 0.8147E-01(WHEN MIN. R.F.=1)  AT K=   3, I=   2, J=  32


 TOTAL NUMBER OF POINT SOURCES/SINKS PRESENT IN THE FLOW MODEL =   240

 MAXIMUM STEPSIZE WHICH MEETS STABILITY CRITERION OF THE SINK & SOURCE TERM
 = 0.1000E+31(WHEN MIN. R.F.=1)  AT K=   0, I=   0, J=   0

 MAXIMUM STEPSIZE WHICH MEETS STABILITY CRITERION OF THE DISPERSION TERM
 = 0.5612E-02(WHEN MIN. R.F.=1)  AT K=   3, I=   2, J=  32
     1 CALLS TO GCG PACKAGE FOR TRANSPORT TIME STEP  11 IN FLOW TIME STEP  30 STRESS PERIOD   2
    14 TOTAL ITERATIONS
 
 SOLVING FOR HEAD 
 FLOW MODEL IS TRANSIENT
 FLOW MODEL CONTAINS CONSTANT-HEAD CELLS


 MAXIMUM STEPSIZE DURING WHICH ANY PARTICLE CANNOT MOVE MORE THAN ONE CELL
 = 0.1189    (WHEN MIN. R.F.=1)  AT K=   3, I=   2, J=  33

 MAXIMUM STEPSIZE WHICH MEETS STABILITY CRITERION OF THE ADVECTION TERM
 (FOR PURE FINITE-DIFFERENCE OPTION, MIXELM=0) 
 = 0.8147E-01(WHEN MIN. R.F.=1)  AT K=   3, I=   2, J=  32


 TOTAL NUMBER OF POINT SOURCES/SINKS PRESENT IN THE FLOW MODEL =   240

 MAXIMUM STEPSIZE WHICH MEETS STABILITY CRITERION OF THE SINK & SOURCE TERM
 = 0.1000E+31(WHEN MIN. R.F.=1)  AT K=   0, I=   0, J=   0

 MAXIMUM STEPSIZE WHICH MEETS STABILITY CRITERION OF THE DISPERSION TERM
 = 0.5612E-02(WHEN MIN. R.F.=1)  AT K=   3, I=   2, J=  32
     1 CALLS TO GCG PACKAGE FOR TRANSPORT TIME STEP  12 IN FLOW TIME STEP  30 STRESS PERIOD   2
     7 TOTAL ITERATIONS
  MAXIMUM CONCENTRATION CHANGES FOR EACH ITERATION:
  MAX. CHANGE LAYER,ROW,COL MAX. CHANGE LAYER,ROW,COL MAX. CHANGE LAYER,ROW,COL MAX. CHANGE LAYER,ROW,COL MAX. CHANGE LAYER,ROW,COL
 ------------------------------------------------------------------------------------------------------------------------------------
   0.2758E-03 ( 13,  2, 57)  0.3601E-04 (  6,  2, 60)  0.4963E-05 (  5,  2, 57)  0.1876E-05 (  3,  2, 33)  0.8369E-06 (  4,  2, 33)
   0.3253E-06 (  3,  2, 33)  0.8582E-07 (  2,  2, 33)


                                          ================================================
                                                         FROM TIME =   31.000     TO    32.000    

 
 SOLVING FOR HEAD 
 FLOW MODEL IS TRANSIENT
 FLOW MODEL CONTAINS CONSTANT-HEAD CELLS


 MAXIMUM STEPSIZE DURING WHICH ANY PARTICLE CANNOT MOVE MORE THAN ONE CELL
 = 0.1189    (WHEN MIN. R.F.=1)  AT K=   3, I=   2, J=  33

 MAXIMUM STEPSIZE WHICH MEETS STABILITY CRITERION OF THE ADVECTION TERM
 (FOR PURE FINITE-DIFFERENCE OPTION, MIXELM=0) 
 = 0.8147E-01(WHEN MIN. R.F.=1)  AT K=   3, I=   2, J=  32


 TOTAL NUMBER OF POINT SOURCES/SINKS PRESENT IN THE FLOW MODEL =   240

 MAXIMUM STEPSIZE WHICH MEETS STABILITY CRITERION OF THE SINK & SOURCE TERM
 = 0.1000E+31(WHEN MIN. R.F.=1)  AT K=   0, I=   0, J=   0

 MAXIMUM STEPSIZE WHICH MEETS STABILITY CRITERION OF THE DISPERSION TERM
 = 0.5612E-02(WHEN MIN. R.F.=1)  AT K=   3, I=   2, J=  32


     1 CALLS TO GCG PACKAGE FOR TRANSPORT TIME STEP   1 IN FLOW TIME STEP  31 STRESS PERIOD   2
    14 TOTAL ITERATIONS

 NO OUTPUT CONTROL FOR STRESS PERIOD    2   TIME STEP  31
 
 SOLVING FOR HEAD 
 FLOW MODEL IS TRANSIENT
 FLOW MODEL CONTAINS CONSTANT-HEAD CELLS


 MAXIMUM STEPSIZE DURING WHICH ANY PARTICLE CANNOT MOVE MORE THAN ONE CELL
 = 0.1189    (WHEN MIN. R.F.=1)  AT K=   3, I=   2, J=  33

 MAXIMUM STEPSIZE WHICH MEETS STABILITY CRITERION OF THE ADVECTION TERM
 (FOR PURE FINITE-DIFFERENCE OPTION, MIXELM=0) 
 = 0.8147E-01(WHEN MIN. R.F.=1)  AT K=   3, I=   2, J=  32


 TOTAL NUMBER OF POINT SOURCES/SINKS PRESENT IN THE FLOW MODEL =   240

 MAXIMUM STEPSIZE WHICH MEETS STABILITY CRITERION OF THE SINK & SOURCE TERM
 = 0.1000E+31(WHEN MIN. R.F.=1)  AT K=   0, I=   0, J=   0

 MAXIMUM STEPSIZE WHICH MEETS STABILITY CRITERION OF THE DISPERSION TERM
 = 0.5612E-02(WHEN MIN. R.F.=1)  AT K=   3, I=   2, J=  32
     1 CALLS TO GCG PACKAGE FOR TRANSPORT TIME STEP   2 IN FLOW TIME STEP  31 STRESS PERIOD   2
    14 TOTAL ITERATIONS
 
 SOLVING FOR HEAD 
 FLOW MODEL IS TRANSIENT
 FLOW MODEL CONTAINS CONSTANT-HEAD CELLS


 MAXIMUM STEPSIZE DURING WHICH ANY PARTICLE CANNOT MOVE MORE THAN ONE CELL
 = 0.1189    (WHEN MIN. R.F.=1)  AT K=   3, I=   2, J=  33

 MAXIMUM STEPSIZE WHICH MEETS STABILITY CRITERION OF THE ADVECTION TERM
 (FOR PURE FINITE-DIFFERENCE OPTION, MIXELM=0) 
 = 0.8147E-01(WHEN MIN. R.F.=1)  AT K=   3, I=   2, J=  32


 TOTAL NUMBER OF POINT SOURCES/SINKS PRESENT IN THE FLOW MODEL =   240

 MAXIMUM STEPSIZE WHICH MEETS STABILITY CRITERION OF THE SINK & SOURCE TERM
 = 0.1000E+31(WHEN MIN. R.F.=1)  AT K=   0, I=   0, J=   0

 MAXIMUM STEPSIZE WHICH MEETS STABILITY CRITERION OF THE DISPERSION TERM
 = 0.5612E-02(WHEN MIN. R.F.=1)  AT K=   3, I=   2, J=  32
     1 CALLS TO GCG PACKAGE FOR TRANSPORT TIME STEP   3 IN FLOW TIME STEP  31 STRESS PERIOD   2
    14 TOTAL ITERATIONS
 
 SOLVING FOR HEAD 
 FLOW MODEL IS TRANSIENT
 FLOW MODEL CONTAINS CONSTANT-HEAD CELLS


 MAXIMUM STEPSIZE DURING WHICH ANY PARTICLE CANNOT MOVE MORE THAN ONE CELL
 = 0.1189    (WHEN MIN. R.F.=1)  AT K=   3, I=   2, J=  33

 MAXIMUM STEPSIZE WHICH MEETS STABILITY CRITERION OF THE ADVECTION TERM
 (FOR PURE FINITE-DIFFERENCE OPTION, MIXELM=0) 
 = 0.8147E-01(WHEN MIN. R.F.=1)  AT K=   3, I=   2, J=  32


 TOTAL NUMBER OF POINT SOURCES/SINKS PRESENT IN THE FLOW MODEL =   240

 MAXIMUM STEPSIZE WHICH MEETS STABILITY CRITERION OF THE SINK & SOURCE TERM
 = 0.1000E+31(WHEN MIN. R.F.=1)  AT K=   0, I=   0, J=   0

 MAXIMUM STEPSIZE WHICH MEETS STABILITY CRITERION OF THE DISPERSION TERM
 = 0.5612E-02(WHEN MIN. R.F.=1)  AT K=   3, I=   2, J=  32
     1 CALLS TO GCG PACKAGE FOR TRANSPORT TIME STEP   4 IN FLOW TIME STEP  31 STRESS PERIOD   2
    14 TOTAL ITERATIONS
 
 SOLVING FOR HEAD 
 FLOW MODEL IS TRANSIENT
 FLOW MODEL CONTAINS CONSTANT-HEAD CELLS


 MAXIMUM STEPSIZE DURING WHICH ANY PARTICLE CANNOT MOVE MORE THAN ONE CELL
 = 0.1189    (WHEN MIN. R.F.=1)  AT K=   3, I=   2, J=  33

 MAXIMUM STEPSIZE WHICH MEETS STABILITY CRITERION OF THE ADVECTION TERM
 (FOR PURE FINITE-DIFFERENCE OPTION, MIXELM=0) 
 = 0.8147E-01(WHEN MIN. R.F.=1)  AT K=   3, I=   2, J=  32


 TOTAL NUMBER OF POINT SOURCES/SINKS PRESENT IN THE FLOW MODEL =   240

 MAXIMUM STEPSIZE WHICH MEETS STABILITY CRITERION OF THE SINK & SOURCE TERM
 = 0.1000E+31(WHEN MIN. R.F.=1)  AT K=   0, I=   0, J=   0

 MAXIMUM STEPSIZE WHICH MEETS STABILITY CRITERION OF THE DISPERSION TERM
 = 0.5612E-02(WHEN MIN. R.F.=1)  AT K=   3, I=   2, J=  32
     1 CALLS TO GCG PACKAGE FOR TRANSPORT TIME STEP   5 IN FLOW TIME STEP  31 STRESS PERIOD   2
    14 TOTAL ITERATIONS
 
 SOLVING FOR HEAD 
 FLOW MODEL IS TRANSIENT
 FLOW MODEL CONTAINS CONSTANT-HEAD CELLS


 MAXIMUM STEPSIZE DURING WHICH ANY PARTICLE CANNOT MOVE MORE THAN ONE CELL
 = 0.1189    (WHEN MIN. R.F.=1)  AT K=   3, I=   2, J=  33

 MAXIMUM STEPSIZE WHICH MEETS STABILITY CRITERION OF THE ADVECTION TERM
 (FOR PURE FINITE-DIFFERENCE OPTION, MIXELM=0) 
 = 0.8147E-01(WHEN MIN. R.F.=1)  AT K=   3, I=   2, J=  32


 TOTAL NUMBER OF POINT SOURCES/SINKS PRESENT IN THE FLOW MODEL =   240

 MAXIMUM STEPSIZE WHICH MEETS STABILITY CRITERION OF THE SINK & SOURCE TERM
 = 0.1000E+31(WHEN MIN. R.F.=1)  AT K=   0, I=   0, J=   0

 MAXIMUM STEPSIZE WHICH MEETS STABILITY CRITERION OF THE DISPERSION TERM
 = 0.5612E-02(WHEN MIN. R.F.=1)  AT K=   3, I=   2, J=  32
     1 CALLS TO GCG PACKAGE FOR TRANSPORT TIME STEP   6 IN FLOW TIME STEP  31 STRESS PERIOD   2
    14 TOTAL ITERATIONS
 
 SOLVING FOR HEAD 
 FLOW MODEL IS TRANSIENT
 FLOW MODEL CONTAINS CONSTANT-HEAD CELLS


 MAXIMUM STEPSIZE DURING WHICH ANY PARTICLE CANNOT MOVE MORE THAN ONE CELL
 = 0.1189    (WHEN MIN. R.F.=1)  AT K=   3, I=   2, J=  33

 MAXIMUM STEPSIZE WHICH MEETS STABILITY CRITERION OF THE ADVECTION TERM
 (FOR PURE FINITE-DIFFERENCE OPTION, MIXELM=0) 
 = 0.8147E-01(WHEN MIN. R.F.=1)  AT K=   3, I=   2, J=  32


 TOTAL NUMBER OF POINT SOURCES/SINKS PRESENT IN THE FLOW MODEL =   240

 MAXIMUM STEPSIZE WHICH MEETS STABILITY CRITERION OF THE SINK & SOURCE TERM
 = 0.1000E+31(WHEN MIN. R.F.=1)  AT K=   0, I=   0, J=   0

 MAXIMUM STEPSIZE WHICH MEETS STABILITY CRITERION OF THE DISPERSION TERM
 = 0.5612E-02(WHEN MIN. R.F.=1)  AT K=   3, I=   2, J=  32
     1 CALLS TO GCG PACKAGE FOR TRANSPORT TIME STEP   7 IN FLOW TIME STEP  31 STRESS PERIOD   2
    14 TOTAL ITERATIONS
 
 SOLVING FOR HEAD 
 FLOW MODEL IS TRANSIENT
 FLOW MODEL CONTAINS CONSTANT-HEAD CELLS


 MAXIMUM STEPSIZE DURING WHICH ANY PARTICLE CANNOT MOVE MORE THAN ONE CELL
 = 0.1189    (WHEN MIN. R.F.=1)  AT K=   3, I=   2, J=  33

 MAXIMUM STEPSIZE WHICH MEETS STABILITY CRITERION OF THE ADVECTION TERM
 (FOR PURE FINITE-DIFFERENCE OPTION, MIXELM=0) 
 = 0.8147E-01(WHEN MIN. R.F.=1)  AT K=   3, I=   2, J=  32


 TOTAL NUMBER OF POINT SOURCES/SINKS PRESENT IN THE FLOW MODEL =   240

 MAXIMUM STEPSIZE WHICH MEETS STABILITY CRITERION OF THE SINK & SOURCE TERM
 = 0.1000E+31(WHEN MIN. R.F.=1)  AT K=   0, I=   0, J=   0

 MAXIMUM STEPSIZE WHICH MEETS STABILITY CRITERION OF THE DISPERSION TERM
 = 0.5612E-02(WHEN MIN. R.F.=1)  AT K=   3, I=   2, J=  32
     1 CALLS TO GCG PACKAGE FOR TRANSPORT TIME STEP   8 IN FLOW TIME STEP  31 STRESS PERIOD   2
    14 TOTAL ITERATIONS
 
 SOLVING FOR HEAD 
 FLOW MODEL IS TRANSIENT
 FLOW MODEL CONTAINS CONSTANT-HEAD CELLS


 MAXIMUM STEPSIZE DURING WHICH ANY PARTICLE CANNOT MOVE MORE THAN ONE CELL
 = 0.1189    (WHEN MIN. R.F.=1)  AT K=   3, I=   2, J=  33

 MAXIMUM STEPSIZE WHICH MEETS STABILITY CRITERION OF THE ADVECTION TERM
 (FOR PURE FINITE-DIFFERENCE OPTION, MIXELM=0) 
 = 0.8147E-01(WHEN MIN. R.F.=1)  AT K=   3, I=   2, J=  32


 TOTAL NUMBER OF POINT SOURCES/SINKS PRESENT IN THE FLOW MODEL =   240

 MAXIMUM STEPSIZE WHICH MEETS STABILITY CRITERION OF THE SINK & SOURCE TERM
 = 0.1000E+31(WHEN MIN. R.F.=1)  AT K=   0, I=   0, J=   0

 MAXIMUM STEPSIZE WHICH MEETS STABILITY CRITERION OF THE DISPERSION TERM
 = 0.5612E-02(WHEN MIN. R.F.=1)  AT K=   3, I=   2, J=  32
     1 CALLS TO GCG PACKAGE FOR TRANSPORT TIME STEP   9 IN FLOW TIME STEP  31 STRESS PERIOD   2
    14 TOTAL ITERATIONS
 
 SOLVING FOR HEAD 
 FLOW MODEL IS TRANSIENT
 FLOW MODEL CONTAINS CONSTANT-HEAD CELLS


 MAXIMUM STEPSIZE DURING WHICH ANY PARTICLE CANNOT MOVE MORE THAN ONE CELL
 = 0.1189    (WHEN MIN. R.F.=1)  AT K=   3, I=   2, J=  33

 MAXIMUM STEPSIZE WHICH MEETS STABILITY CRITERION OF THE ADVECTION TERM
 (FOR PURE FINITE-DIFFERENCE OPTION, MIXELM=0) 
 = 0.8147E-01(WHEN MIN. R.F.=1)  AT K=   3, I=   2, J=  32


 TOTAL NUMBER OF POINT SOURCES/SINKS PRESENT IN THE FLOW MODEL =   240

 MAXIMUM STEPSIZE WHICH MEETS STABILITY CRITERION OF THE SINK & SOURCE TERM
 = 0.1000E+31(WHEN MIN. R.F.=1)  AT K=   0, I=   0, J=   0

 MAXIMUM STEPSIZE WHICH MEETS STABILITY CRITERION OF THE DISPERSION TERM
 = 0.5612E-02(WHEN MIN. R.F.=1)  AT K=   3, I=   2, J=  32
     1 CALLS TO GCG PACKAGE FOR TRANSPORT TIME STEP  10 IN FLOW TIME STEP  31 STRESS PERIOD   2
    14 TOTAL ITERATIONS



 >>>>>>>>>>>>>>>>>>>>>>>>>>>>>>>>>>>>>>>>>>>>>>>>>>>>>>>FOR COMPONENT NO. 01<<<<<<<<<<<<<<<<<<<<<<<<<<<<<<<<<<<<<<<<<<<<<<<<<<<<<<<


                                            -------------------------------------------
                                                      TRANSPORT STEP NO.   10
                                            -------------------------------------------

 TOTAL ELAPSED TIME SINCE BEGINNING OF SIMULATION =   31.89162    D   
 .....................................................................

                     CUMULATIVE MASS BUDGETS AT END OF TRANSPORT STEP   10, TIME STEP   31, STRESS PERIOD    2
                     ------------------------------------------------------------------------------------------

                                                             IN                           OUT
                                                      ----------------             ----------------
                               CONSTANT CONCENTRATION:    6490.290                   -2602.180    
                                        CONSTANT HEAD:    0.000000                    0.000000    
                               MASS STOR (FLOW MODEL):   0.1221642E-01              -0.3157368E-02
                                MASS STORAGE (SOLUTE):   0.5365175E-03               -3888.121    
                            ---------------------------------------------------------------------------
                                              [TOTAL]:    6490.302     KG            -6490.304     KG  

                                                          NET (IN - OUT):  -0.2042610E-02
                                                   DISCREPANCY (PERCENT):  -0.3147172E-04
 
 SOLVING FOR HEAD 
 FLOW MODEL IS TRANSIENT
 FLOW MODEL CONTAINS CONSTANT-HEAD CELLS


 MAXIMUM STEPSIZE DURING WHICH ANY PARTICLE CANNOT MOVE MORE THAN ONE CELL
 = 0.1189    (WHEN MIN. R.F.=1)  AT K=   3, I=   2, J=  33

 MAXIMUM STEPSIZE WHICH MEETS STABILITY CRITERION OF THE ADVECTION TERM
 (FOR PURE FINITE-DIFFERENCE OPTION, MIXELM=0) 
 = 0.8147E-01(WHEN MIN. R.F.=1)  AT K=   3, I=   2, J=  32


 TOTAL NUMBER OF POINT SOURCES/SINKS PRESENT IN THE FLOW MODEL =   240

 MAXIMUM STEPSIZE WHICH MEETS STABILITY CRITERION OF THE SINK & SOURCE TERM
 = 0.1000E+31(WHEN MIN. R.F.=1)  AT K=   0, I=   0, J=   0

 MAXIMUM STEPSIZE WHICH MEETS STABILITY CRITERION OF THE DISPERSION TERM
 = 0.5612E-02(WHEN MIN. R.F.=1)  AT K=   3, I=   2, J=  32
     1 CALLS TO GCG PACKAGE FOR TRANSPORT TIME STEP  11 IN FLOW TIME STEP  31 STRESS PERIOD   2
    14 TOTAL ITERATIONS
 
 SOLVING FOR HEAD 
 FLOW MODEL IS TRANSIENT
 FLOW MODEL CONTAINS CONSTANT-HEAD CELLS


 MAXIMUM STEPSIZE DURING WHICH ANY PARTICLE CANNOT MOVE MORE THAN ONE CELL
 = 0.1189    (WHEN MIN. R.F.=1)  AT K=   3, I=   2, J=  33

 MAXIMUM STEPSIZE WHICH MEETS STABILITY CRITERION OF THE ADVECTION TERM
 (FOR PURE FINITE-DIFFERENCE OPTION, MIXELM=0) 
 = 0.8147E-01(WHEN MIN. R.F.=1)  AT K=   3, I=   2, J=  32


 TOTAL NUMBER OF POINT SOURCES/SINKS PRESENT IN THE FLOW MODEL =   240

 MAXIMUM STEPSIZE WHICH MEETS STABILITY CRITERION OF THE SINK & SOURCE TERM
 = 0.1000E+31(WHEN MIN. R.F.=1)  AT K=   0, I=   0, J=   0

 MAXIMUM STEPSIZE WHICH MEETS STABILITY CRITERION OF THE DISPERSION TERM
 = 0.5612E-02(WHEN MIN. R.F.=1)  AT K=   3, I=   2, J=  32
     1 CALLS TO GCG PACKAGE FOR TRANSPORT TIME STEP  12 IN FLOW TIME STEP  31 STRESS PERIOD   2
     7 TOTAL ITERATIONS
  MAXIMUM CONCENTRATION CHANGES FOR EACH ITERATION:
  MAX. CHANGE LAYER,ROW,COL MAX. CHANGE LAYER,ROW,COL MAX. CHANGE LAYER,ROW,COL MAX. CHANGE LAYER,ROW,COL MAX. CHANGE LAYER,ROW,COL
 ------------------------------------------------------------------------------------------------------------------------------------
   0.2678E-03 ( 13,  2, 57)  0.3427E-04 (  6,  2, 60)  0.4745E-05 (  5,  2, 57)  0.1755E-05 (  3,  2, 33)  0.7851E-06 (  4,  2, 33)
   0.3062E-06 (  3,  2, 33)  0.8098E-07 (  2,  2, 33)


                                          ================================================
                                                         FROM TIME =   32.000     TO    33.000    

 
 SOLVING FOR HEAD 
 FLOW MODEL IS TRANSIENT
 FLOW MODEL CONTAINS CONSTANT-HEAD CELLS


 MAXIMUM STEPSIZE DURING WHICH ANY PARTICLE CANNOT MOVE MORE THAN ONE CELL
 = 0.1189    (WHEN MIN. R.F.=1)  AT K=   3, I=   2, J=  33

 MAXIMUM STEPSIZE WHICH MEETS STABILITY CRITERION OF THE ADVECTION TERM
 (FOR PURE FINITE-DIFFERENCE OPTION, MIXELM=0) 
 = 0.8147E-01(WHEN MIN. R.F.=1)  AT K=   3, I=   2, J=  32


 TOTAL NUMBER OF POINT SOURCES/SINKS PRESENT IN THE FLOW MODEL =   240

 MAXIMUM STEPSIZE WHICH MEETS STABILITY CRITERION OF THE SINK & SOURCE TERM
 = 0.1000E+31(WHEN MIN. R.F.=1)  AT K=   0, I=   0, J=   0

 MAXIMUM STEPSIZE WHICH MEETS STABILITY CRITERION OF THE DISPERSION TERM
 = 0.5612E-02(WHEN MIN. R.F.=1)  AT K=   3, I=   2, J=  32


     1 CALLS TO GCG PACKAGE FOR TRANSPORT TIME STEP   1 IN FLOW TIME STEP  32 STRESS PERIOD   2
    14 TOTAL ITERATIONS

 NO OUTPUT CONTROL FOR STRESS PERIOD    2   TIME STEP  32
 
 SOLVING FOR HEAD 
 FLOW MODEL IS TRANSIENT
 FLOW MODEL CONTAINS CONSTANT-HEAD CELLS


 MAXIMUM STEPSIZE DURING WHICH ANY PARTICLE CANNOT MOVE MORE THAN ONE CELL
 = 0.1189    (WHEN MIN. R.F.=1)  AT K=   3, I=   2, J=  33

 MAXIMUM STEPSIZE WHICH MEETS STABILITY CRITERION OF THE ADVECTION TERM
 (FOR PURE FINITE-DIFFERENCE OPTION, MIXELM=0) 
 = 0.8146E-01(WHEN MIN. R.F.=1)  AT K=   3, I=   2, J=  32


 TOTAL NUMBER OF POINT SOURCES/SINKS PRESENT IN THE FLOW MODEL =   240

 MAXIMUM STEPSIZE WHICH MEETS STABILITY CRITERION OF THE SINK & SOURCE TERM
 = 0.1000E+31(WHEN MIN. R.F.=1)  AT K=   0, I=   0, J=   0

 MAXIMUM STEPSIZE WHICH MEETS STABILITY CRITERION OF THE DISPERSION TERM
 = 0.5612E-02(WHEN MIN. R.F.=1)  AT K=   3, I=   2, J=  32
     1 CALLS TO GCG PACKAGE FOR TRANSPORT TIME STEP   2 IN FLOW TIME STEP  32 STRESS PERIOD   2
    14 TOTAL ITERATIONS
 
 SOLVING FOR HEAD 
 FLOW MODEL IS TRANSIENT
 FLOW MODEL CONTAINS CONSTANT-HEAD CELLS


 MAXIMUM STEPSIZE DURING WHICH ANY PARTICLE CANNOT MOVE MORE THAN ONE CELL
 = 0.1189    (WHEN MIN. R.F.=1)  AT K=   3, I=   2, J=  33

 MAXIMUM STEPSIZE WHICH MEETS STABILITY CRITERION OF THE ADVECTION TERM
 (FOR PURE FINITE-DIFFERENCE OPTION, MIXELM=0) 
 = 0.8146E-01(WHEN MIN. R.F.=1)  AT K=   3, I=   2, J=  32


 TOTAL NUMBER OF POINT SOURCES/SINKS PRESENT IN THE FLOW MODEL =   240

 MAXIMUM STEPSIZE WHICH MEETS STABILITY CRITERION OF THE SINK & SOURCE TERM
 = 0.1000E+31(WHEN MIN. R.F.=1)  AT K=   0, I=   0, J=   0

 MAXIMUM STEPSIZE WHICH MEETS STABILITY CRITERION OF THE DISPERSION TERM
 = 0.5611E-02(WHEN MIN. R.F.=1)  AT K=   3, I=   2, J=  32
     1 CALLS TO GCG PACKAGE FOR TRANSPORT TIME STEP   3 IN FLOW TIME STEP  32 STRESS PERIOD   2
    14 TOTAL ITERATIONS
 
 SOLVING FOR HEAD 
 FLOW MODEL IS TRANSIENT
 FLOW MODEL CONTAINS CONSTANT-HEAD CELLS


 MAXIMUM STEPSIZE DURING WHICH ANY PARTICLE CANNOT MOVE MORE THAN ONE CELL
 = 0.1189    (WHEN MIN. R.F.=1)  AT K=   3, I=   2, J=  33

 MAXIMUM STEPSIZE WHICH MEETS STABILITY CRITERION OF THE ADVECTION TERM
 (FOR PURE FINITE-DIFFERENCE OPTION, MIXELM=0) 
 = 0.8146E-01(WHEN MIN. R.F.=1)  AT K=   3, I=   2, J=  32


 TOTAL NUMBER OF POINT SOURCES/SINKS PRESENT IN THE FLOW MODEL =   240

 MAXIMUM STEPSIZE WHICH MEETS STABILITY CRITERION OF THE SINK & SOURCE TERM
 = 0.1000E+31(WHEN MIN. R.F.=1)  AT K=   0, I=   0, J=   0

 MAXIMUM STEPSIZE WHICH MEETS STABILITY CRITERION OF THE DISPERSION TERM
 = 0.5611E-02(WHEN MIN. R.F.=1)  AT K=   3, I=   2, J=  32
     1 CALLS TO GCG PACKAGE FOR TRANSPORT TIME STEP   4 IN FLOW TIME STEP  32 STRESS PERIOD   2
    14 TOTAL ITERATIONS
 
 SOLVING FOR HEAD 
 FLOW MODEL IS TRANSIENT
 FLOW MODEL CONTAINS CONSTANT-HEAD CELLS


 MAXIMUM STEPSIZE DURING WHICH ANY PARTICLE CANNOT MOVE MORE THAN ONE CELL
 = 0.1189    (WHEN MIN. R.F.=1)  AT K=   3, I=   2, J=  33

 MAXIMUM STEPSIZE WHICH MEETS STABILITY CRITERION OF THE ADVECTION TERM
 (FOR PURE FINITE-DIFFERENCE OPTION, MIXELM=0) 
 = 0.8146E-01(WHEN MIN. R.F.=1)  AT K=   3, I=   2, J=  32


 TOTAL NUMBER OF POINT SOURCES/SINKS PRESENT IN THE FLOW MODEL =   240

 MAXIMUM STEPSIZE WHICH MEETS STABILITY CRITERION OF THE SINK & SOURCE TERM
 = 0.1000E+31(WHEN MIN. R.F.=1)  AT K=   0, I=   0, J=   0

 MAXIMUM STEPSIZE WHICH MEETS STABILITY CRITERION OF THE DISPERSION TERM
 = 0.5611E-02(WHEN MIN. R.F.=1)  AT K=   3, I=   2, J=  32
     1 CALLS TO GCG PACKAGE FOR TRANSPORT TIME STEP   5 IN FLOW TIME STEP  32 STRESS PERIOD   2
    14 TOTAL ITERATIONS
 
 SOLVING FOR HEAD 
 FLOW MODEL IS TRANSIENT
 FLOW MODEL CONTAINS CONSTANT-HEAD CELLS


 MAXIMUM STEPSIZE DURING WHICH ANY PARTICLE CANNOT MOVE MORE THAN ONE CELL
 = 0.1189    (WHEN MIN. R.F.=1)  AT K=   3, I=   2, J=  33

 MAXIMUM STEPSIZE WHICH MEETS STABILITY CRITERION OF THE ADVECTION TERM
 (FOR PURE FINITE-DIFFERENCE OPTION, MIXELM=0) 
 = 0.8146E-01(WHEN MIN. R.F.=1)  AT K=   3, I=   2, J=  32


 TOTAL NUMBER OF POINT SOURCES/SINKS PRESENT IN THE FLOW MODEL =   240

 MAXIMUM STEPSIZE WHICH MEETS STABILITY CRITERION OF THE SINK & SOURCE TERM
 = 0.1000E+31(WHEN MIN. R.F.=1)  AT K=   0, I=   0, J=   0

 MAXIMUM STEPSIZE WHICH MEETS STABILITY CRITERION OF THE DISPERSION TERM
 = 0.5611E-02(WHEN MIN. R.F.=1)  AT K=   3, I=   2, J=  32
     1 CALLS TO GCG PACKAGE FOR TRANSPORT TIME STEP   6 IN FLOW TIME STEP  32 STRESS PERIOD   2
    14 TOTAL ITERATIONS
 
 SOLVING FOR HEAD 
 FLOW MODEL IS TRANSIENT
 FLOW MODEL CONTAINS CONSTANT-HEAD CELLS


 MAXIMUM STEPSIZE DURING WHICH ANY PARTICLE CANNOT MOVE MORE THAN ONE CELL
 = 0.1189    (WHEN MIN. R.F.=1)  AT K=   3, I=   2, J=  33

 MAXIMUM STEPSIZE WHICH MEETS STABILITY CRITERION OF THE ADVECTION TERM
 (FOR PURE FINITE-DIFFERENCE OPTION, MIXELM=0) 
 = 0.8146E-01(WHEN MIN. R.F.=1)  AT K=   3, I=   2, J=  32


 TOTAL NUMBER OF POINT SOURCES/SINKS PRESENT IN THE FLOW MODEL =   240

 MAXIMUM STEPSIZE WHICH MEETS STABILITY CRITERION OF THE SINK & SOURCE TERM
 = 0.1000E+31(WHEN MIN. R.F.=1)  AT K=   0, I=   0, J=   0

 MAXIMUM STEPSIZE WHICH MEETS STABILITY CRITERION OF THE DISPERSION TERM
 = 0.5611E-02(WHEN MIN. R.F.=1)  AT K=   3, I=   2, J=  32
     1 CALLS TO GCG PACKAGE FOR TRANSPORT TIME STEP   7 IN FLOW TIME STEP  32 STRESS PERIOD   2
    14 TOTAL ITERATIONS
 
 SOLVING FOR HEAD 
 FLOW MODEL IS TRANSIENT
 FLOW MODEL CONTAINS CONSTANT-HEAD CELLS


 MAXIMUM STEPSIZE DURING WHICH ANY PARTICLE CANNOT MOVE MORE THAN ONE CELL
 = 0.1189    (WHEN MIN. R.F.=1)  AT K=   3, I=   2, J=  33

 MAXIMUM STEPSIZE WHICH MEETS STABILITY CRITERION OF THE ADVECTION TERM
 (FOR PURE FINITE-DIFFERENCE OPTION, MIXELM=0) 
 = 0.8146E-01(WHEN MIN. R.F.=1)  AT K=   3, I=   2, J=  32


 TOTAL NUMBER OF POINT SOURCES/SINKS PRESENT IN THE FLOW MODEL =   240

 MAXIMUM STEPSIZE WHICH MEETS STABILITY CRITERION OF THE SINK & SOURCE TERM
 = 0.1000E+31(WHEN MIN. R.F.=1)  AT K=   0, I=   0, J=   0

 MAXIMUM STEPSIZE WHICH MEETS STABILITY CRITERION OF THE DISPERSION TERM
 = 0.5611E-02(WHEN MIN. R.F.=1)  AT K=   3, I=   2, J=  32
     1 CALLS TO GCG PACKAGE FOR TRANSPORT TIME STEP   8 IN FLOW TIME STEP  32 STRESS PERIOD   2
    14 TOTAL ITERATIONS
 
 SOLVING FOR HEAD 
 FLOW MODEL IS TRANSIENT
 FLOW MODEL CONTAINS CONSTANT-HEAD CELLS


 MAXIMUM STEPSIZE DURING WHICH ANY PARTICLE CANNOT MOVE MORE THAN ONE CELL
 = 0.1189    (WHEN MIN. R.F.=1)  AT K=   3, I=   2, J=  33

 MAXIMUM STEPSIZE WHICH MEETS STABILITY CRITERION OF THE ADVECTION TERM
 (FOR PURE FINITE-DIFFERENCE OPTION, MIXELM=0) 
 = 0.8146E-01(WHEN MIN. R.F.=1)  AT K=   3, I=   2, J=  32


 TOTAL NUMBER OF POINT SOURCES/SINKS PRESENT IN THE FLOW MODEL =   240

 MAXIMUM STEPSIZE WHICH MEETS STABILITY CRITERION OF THE SINK & SOURCE TERM
 = 0.1000E+31(WHEN MIN. R.F.=1)  AT K=   0, I=   0, J=   0

 MAXIMUM STEPSIZE WHICH MEETS STABILITY CRITERION OF THE DISPERSION TERM
 = 0.5611E-02(WHEN MIN. R.F.=1)  AT K=   3, I=   2, J=  32
     1 CALLS TO GCG PACKAGE FOR TRANSPORT TIME STEP   9 IN FLOW TIME STEP  32 STRESS PERIOD   2
    14 TOTAL ITERATIONS
 
 SOLVING FOR HEAD 
 FLOW MODEL IS TRANSIENT
 FLOW MODEL CONTAINS CONSTANT-HEAD CELLS


 MAXIMUM STEPSIZE DURING WHICH ANY PARTICLE CANNOT MOVE MORE THAN ONE CELL
 = 0.1189    (WHEN MIN. R.F.=1)  AT K=   3, I=   2, J=  33

 MAXIMUM STEPSIZE WHICH MEETS STABILITY CRITERION OF THE ADVECTION TERM
 (FOR PURE FINITE-DIFFERENCE OPTION, MIXELM=0) 
 = 0.8146E-01(WHEN MIN. R.F.=1)  AT K=   3, I=   2, J=  32


 TOTAL NUMBER OF POINT SOURCES/SINKS PRESENT IN THE FLOW MODEL =   240

 MAXIMUM STEPSIZE WHICH MEETS STABILITY CRITERION OF THE SINK & SOURCE TERM
 = 0.1000E+31(WHEN MIN. R.F.=1)  AT K=   0, I=   0, J=   0

 MAXIMUM STEPSIZE WHICH MEETS STABILITY CRITERION OF THE DISPERSION TERM
 = 0.5611E-02(WHEN MIN. R.F.=1)  AT K=   3, I=   2, J=  32
     1 CALLS TO GCG PACKAGE FOR TRANSPORT TIME STEP  10 IN FLOW TIME STEP  32 STRESS PERIOD   2
    14 TOTAL ITERATIONS



 >>>>>>>>>>>>>>>>>>>>>>>>>>>>>>>>>>>>>>>>>>>>>>>>>>>>>>>FOR COMPONENT NO. 01<<<<<<<<<<<<<<<<<<<<<<<<<<<<<<<<<<<<<<<<<<<<<<<<<<<<<<<


                                            -------------------------------------------
                                                      TRANSPORT STEP NO.   10
                                            -------------------------------------------

 TOTAL ELAPSED TIME SINCE BEGINNING OF SIMULATION =   32.89157    D   
 .....................................................................

                     CUMULATIVE MASS BUDGETS AT END OF TRANSPORT STEP   10, TIME STEP   32, STRESS PERIOD    2
                     ------------------------------------------------------------------------------------------

                                                             IN                           OUT
                                                      ----------------             ----------------
                               CONSTANT CONCENTRATION:    6617.088                   -2693.316    
                                        CONSTANT HEAD:    0.000000                    0.000000    
                               MASS STOR (FLOW MODEL):   0.1223630E-01              -0.3168542E-02
                                MASS STORAGE (SOLUTE):   0.3481711E-02               -3923.787    
                            ---------------------------------------------------------------------------
                                              [TOTAL]:    6617.104     KG            -6617.106     KG  

                                                          NET (IN - OUT):  -0.2108239E-02
                                                   DISCREPANCY (PERCENT):  -0.3186044E-04
 
 SOLVING FOR HEAD 
 FLOW MODEL IS TRANSIENT
 FLOW MODEL CONTAINS CONSTANT-HEAD CELLS


 MAXIMUM STEPSIZE DURING WHICH ANY PARTICLE CANNOT MOVE MORE THAN ONE CELL
 = 0.1189    (WHEN MIN. R.F.=1)  AT K=   3, I=   2, J=  33

 MAXIMUM STEPSIZE WHICH MEETS STABILITY CRITERION OF THE ADVECTION TERM
 (FOR PURE FINITE-DIFFERENCE OPTION, MIXELM=0) 
 = 0.8146E-01(WHEN MIN. R.F.=1)  AT K=   3, I=   2, J=  32


 TOTAL NUMBER OF POINT SOURCES/SINKS PRESENT IN THE FLOW MODEL =   240

 MAXIMUM STEPSIZE WHICH MEETS STABILITY CRITERION OF THE SINK & SOURCE TERM
 = 0.1000E+31(WHEN MIN. R.F.=1)  AT K=   0, I=   0, J=   0

 MAXIMUM STEPSIZE WHICH MEETS STABILITY CRITERION OF THE DISPERSION TERM
 = 0.5611E-02(WHEN MIN. R.F.=1)  AT K=   3, I=   2, J=  32
     1 CALLS TO GCG PACKAGE FOR TRANSPORT TIME STEP  11 IN FLOW TIME STEP  32 STRESS PERIOD   2
    14 TOTAL ITERATIONS
 
 SOLVING FOR HEAD 
 FLOW MODEL IS TRANSIENT
 FLOW MODEL CONTAINS CONSTANT-HEAD CELLS


 MAXIMUM STEPSIZE DURING WHICH ANY PARTICLE CANNOT MOVE MORE THAN ONE CELL
 = 0.1189    (WHEN MIN. R.F.=1)  AT K=   3, I=   2, J=  33

 MAXIMUM STEPSIZE WHICH MEETS STABILITY CRITERION OF THE ADVECTION TERM
 (FOR PURE FINITE-DIFFERENCE OPTION, MIXELM=0) 
 = 0.8146E-01(WHEN MIN. R.F.=1)  AT K=   3, I=   2, J=  32


 TOTAL NUMBER OF POINT SOURCES/SINKS PRESENT IN THE FLOW MODEL =   240

 MAXIMUM STEPSIZE WHICH MEETS STABILITY CRITERION OF THE SINK & SOURCE TERM
 = 0.1000E+31(WHEN MIN. R.F.=1)  AT K=   0, I=   0, J=   0

 MAXIMUM STEPSIZE WHICH MEETS STABILITY CRITERION OF THE DISPERSION TERM
 = 0.5611E-02(WHEN MIN. R.F.=1)  AT K=   3, I=   2, J=  32
     1 CALLS TO GCG PACKAGE FOR TRANSPORT TIME STEP  12 IN FLOW TIME STEP  32 STRESS PERIOD   2
     7 TOTAL ITERATIONS
  MAXIMUM CONCENTRATION CHANGES FOR EACH ITERATION:
  MAX. CHANGE LAYER,ROW,COL MAX. CHANGE LAYER,ROW,COL MAX. CHANGE LAYER,ROW,COL MAX. CHANGE LAYER,ROW,COL MAX. CHANGE LAYER,ROW,COL
 ------------------------------------------------------------------------------------------------------------------------------------
   0.2600E-03 ( 13,  2, 57)  0.3265E-04 (  6,  2, 60)  0.4539E-05 (  5,  2, 57)  0.1644E-05 (  3,  2, 33)  0.7377E-06 (  4,  2, 33)
   0.2886E-06 (  3,  2, 33)  0.7652E-07 (  2,  2, 33)


                                          ================================================
                                                         FROM TIME =   33.000     TO    34.000    

 
 SOLVING FOR HEAD 
 FLOW MODEL IS TRANSIENT
 FLOW MODEL CONTAINS CONSTANT-HEAD CELLS


 MAXIMUM STEPSIZE DURING WHICH ANY PARTICLE CANNOT MOVE MORE THAN ONE CELL
 = 0.1189    (WHEN MIN. R.F.=1)  AT K=   3, I=   2, J=  33

 MAXIMUM STEPSIZE WHICH MEETS STABILITY CRITERION OF THE ADVECTION TERM
 (FOR PURE FINITE-DIFFERENCE OPTION, MIXELM=0) 
 = 0.8146E-01(WHEN MIN. R.F.=1)  AT K=   3, I=   2, J=  32


 TOTAL NUMBER OF POINT SOURCES/SINKS PRESENT IN THE FLOW MODEL =   240

 MAXIMUM STEPSIZE WHICH MEETS STABILITY CRITERION OF THE SINK & SOURCE TERM
 = 0.1000E+31(WHEN MIN. R.F.=1)  AT K=   0, I=   0, J=   0

 MAXIMUM STEPSIZE WHICH MEETS STABILITY CRITERION OF THE DISPERSION TERM
 = 0.5611E-02(WHEN MIN. R.F.=1)  AT K=   3, I=   2, J=  32


     1 CALLS TO GCG PACKAGE FOR TRANSPORT TIME STEP   1 IN FLOW TIME STEP  33 STRESS PERIOD   2
    14 TOTAL ITERATIONS

 NO OUTPUT CONTROL FOR STRESS PERIOD    2   TIME STEP  33
 
 SOLVING FOR HEAD 
 FLOW MODEL IS TRANSIENT
 FLOW MODEL CONTAINS CONSTANT-HEAD CELLS


 MAXIMUM STEPSIZE DURING WHICH ANY PARTICLE CANNOT MOVE MORE THAN ONE CELL
 = 0.1189    (WHEN MIN. R.F.=1)  AT K=   3, I=   2, J=  33

 MAXIMUM STEPSIZE WHICH MEETS STABILITY CRITERION OF THE ADVECTION TERM
 (FOR PURE FINITE-DIFFERENCE OPTION, MIXELM=0) 
 = 0.8146E-01(WHEN MIN. R.F.=1)  AT K=   3, I=   2, J=  32


 TOTAL NUMBER OF POINT SOURCES/SINKS PRESENT IN THE FLOW MODEL =   240

 MAXIMUM STEPSIZE WHICH MEETS STABILITY CRITERION OF THE SINK & SOURCE TERM
 = 0.1000E+31(WHEN MIN. R.F.=1)  AT K=   0, I=   0, J=   0

 MAXIMUM STEPSIZE WHICH MEETS STABILITY CRITERION OF THE DISPERSION TERM
 = 0.5611E-02(WHEN MIN. R.F.=1)  AT K=   3, I=   2, J=  32
     1 CALLS TO GCG PACKAGE FOR TRANSPORT TIME STEP   2 IN FLOW TIME STEP  33 STRESS PERIOD   2
    14 TOTAL ITERATIONS
 
 SOLVING FOR HEAD 
 FLOW MODEL IS TRANSIENT
 FLOW MODEL CONTAINS CONSTANT-HEAD CELLS


 MAXIMUM STEPSIZE DURING WHICH ANY PARTICLE CANNOT MOVE MORE THAN ONE CELL
 = 0.1189    (WHEN MIN. R.F.=1)  AT K=   3, I=   2, J=  33

 MAXIMUM STEPSIZE WHICH MEETS STABILITY CRITERION OF THE ADVECTION TERM
 (FOR PURE FINITE-DIFFERENCE OPTION, MIXELM=0) 
 = 0.8146E-01(WHEN MIN. R.F.=1)  AT K=   3, I=   2, J=  32


 TOTAL NUMBER OF POINT SOURCES/SINKS PRESENT IN THE FLOW MODEL =   240

 MAXIMUM STEPSIZE WHICH MEETS STABILITY CRITERION OF THE SINK & SOURCE TERM
 = 0.1000E+31(WHEN MIN. R.F.=1)  AT K=   0, I=   0, J=   0

 MAXIMUM STEPSIZE WHICH MEETS STABILITY CRITERION OF THE DISPERSION TERM
 = 0.5611E-02(WHEN MIN. R.F.=1)  AT K=   3, I=   2, J=  32
     1 CALLS TO GCG PACKAGE FOR TRANSPORT TIME STEP   3 IN FLOW TIME STEP  33 STRESS PERIOD   2
    14 TOTAL ITERATIONS
 
 SOLVING FOR HEAD 
 FLOW MODEL IS TRANSIENT
 FLOW MODEL CONTAINS CONSTANT-HEAD CELLS


 MAXIMUM STEPSIZE DURING WHICH ANY PARTICLE CANNOT MOVE MORE THAN ONE CELL
 = 0.1189    (WHEN MIN. R.F.=1)  AT K=   3, I=   2, J=  33

 MAXIMUM STEPSIZE WHICH MEETS STABILITY CRITERION OF THE ADVECTION TERM
 (FOR PURE FINITE-DIFFERENCE OPTION, MIXELM=0) 
 = 0.8146E-01(WHEN MIN. R.F.=1)  AT K=   3, I=   2, J=  32


 TOTAL NUMBER OF POINT SOURCES/SINKS PRESENT IN THE FLOW MODEL =   240

 MAXIMUM STEPSIZE WHICH MEETS STABILITY CRITERION OF THE SINK & SOURCE TERM
 = 0.1000E+31(WHEN MIN. R.F.=1)  AT K=   0, I=   0, J=   0

 MAXIMUM STEPSIZE WHICH MEETS STABILITY CRITERION OF THE DISPERSION TERM
 = 0.5611E-02(WHEN MIN. R.F.=1)  AT K=   3, I=   2, J=  32
     1 CALLS TO GCG PACKAGE FOR TRANSPORT TIME STEP   4 IN FLOW TIME STEP  33 STRESS PERIOD   2
    14 TOTAL ITERATIONS
 
 SOLVING FOR HEAD 
 FLOW MODEL IS TRANSIENT
 FLOW MODEL CONTAINS CONSTANT-HEAD CELLS


 MAXIMUM STEPSIZE DURING WHICH ANY PARTICLE CANNOT MOVE MORE THAN ONE CELL
 = 0.1189    (WHEN MIN. R.F.=1)  AT K=   3, I=   2, J=  33

 MAXIMUM STEPSIZE WHICH MEETS STABILITY CRITERION OF THE ADVECTION TERM
 (FOR PURE FINITE-DIFFERENCE OPTION, MIXELM=0) 
 = 0.8146E-01(WHEN MIN. R.F.=1)  AT K=   3, I=   2, J=  32


 TOTAL NUMBER OF POINT SOURCES/SINKS PRESENT IN THE FLOW MODEL =   240

 MAXIMUM STEPSIZE WHICH MEETS STABILITY CRITERION OF THE SINK & SOURCE TERM
 = 0.1000E+31(WHEN MIN. R.F.=1)  AT K=   0, I=   0, J=   0

 MAXIMUM STEPSIZE WHICH MEETS STABILITY CRITERION OF THE DISPERSION TERM
 = 0.5611E-02(WHEN MIN. R.F.=1)  AT K=   3, I=   2, J=  32
     1 CALLS TO GCG PACKAGE FOR TRANSPORT TIME STEP   5 IN FLOW TIME STEP  33 STRESS PERIOD   2
    14 TOTAL ITERATIONS
 
 SOLVING FOR HEAD 
 FLOW MODEL IS TRANSIENT
 FLOW MODEL CONTAINS CONSTANT-HEAD CELLS


 MAXIMUM STEPSIZE DURING WHICH ANY PARTICLE CANNOT MOVE MORE THAN ONE CELL
 = 0.1189    (WHEN MIN. R.F.=1)  AT K=   3, I=   2, J=  33

 MAXIMUM STEPSIZE WHICH MEETS STABILITY CRITERION OF THE ADVECTION TERM
 (FOR PURE FINITE-DIFFERENCE OPTION, MIXELM=0) 
 = 0.8146E-01(WHEN MIN. R.F.=1)  AT K=   3, I=   2, J=  32


 TOTAL NUMBER OF POINT SOURCES/SINKS PRESENT IN THE FLOW MODEL =   240

 MAXIMUM STEPSIZE WHICH MEETS STABILITY CRITERION OF THE SINK & SOURCE TERM
 = 0.1000E+31(WHEN MIN. R.F.=1)  AT K=   0, I=   0, J=   0

 MAXIMUM STEPSIZE WHICH MEETS STABILITY CRITERION OF THE DISPERSION TERM
 = 0.5611E-02(WHEN MIN. R.F.=1)  AT K=   3, I=   2, J=  32
     1 CALLS TO GCG PACKAGE FOR TRANSPORT TIME STEP   6 IN FLOW TIME STEP  33 STRESS PERIOD   2
    14 TOTAL ITERATIONS
 
 SOLVING FOR HEAD 
 FLOW MODEL IS TRANSIENT
 FLOW MODEL CONTAINS CONSTANT-HEAD CELLS


 MAXIMUM STEPSIZE DURING WHICH ANY PARTICLE CANNOT MOVE MORE THAN ONE CELL
 = 0.1189    (WHEN MIN. R.F.=1)  AT K=   3, I=   2, J=  33

 MAXIMUM STEPSIZE WHICH MEETS STABILITY CRITERION OF THE ADVECTION TERM
 (FOR PURE FINITE-DIFFERENCE OPTION, MIXELM=0) 
 = 0.8146E-01(WHEN MIN. R.F.=1)  AT K=   3, I=   2, J=  32


 TOTAL NUMBER OF POINT SOURCES/SINKS PRESENT IN THE FLOW MODEL =   240

 MAXIMUM STEPSIZE WHICH MEETS STABILITY CRITERION OF THE SINK & SOURCE TERM
 = 0.1000E+31(WHEN MIN. R.F.=1)  AT K=   0, I=   0, J=   0

 MAXIMUM STEPSIZE WHICH MEETS STABILITY CRITERION OF THE DISPERSION TERM
 = 0.5611E-02(WHEN MIN. R.F.=1)  AT K=   3, I=   2, J=  32
     1 CALLS TO GCG PACKAGE FOR TRANSPORT TIME STEP   7 IN FLOW TIME STEP  33 STRESS PERIOD   2
    14 TOTAL ITERATIONS
 
 SOLVING FOR HEAD 
 FLOW MODEL IS TRANSIENT
 FLOW MODEL CONTAINS CONSTANT-HEAD CELLS


 MAXIMUM STEPSIZE DURING WHICH ANY PARTICLE CANNOT MOVE MORE THAN ONE CELL
 = 0.1189    (WHEN MIN. R.F.=1)  AT K=   3, I=   2, J=  33

 MAXIMUM STEPSIZE WHICH MEETS STABILITY CRITERION OF THE ADVECTION TERM
 (FOR PURE FINITE-DIFFERENCE OPTION, MIXELM=0) 
 = 0.8146E-01(WHEN MIN. R.F.=1)  AT K=   3, I=   2, J=  32


 TOTAL NUMBER OF POINT SOURCES/SINKS PRESENT IN THE FLOW MODEL =   240

 MAXIMUM STEPSIZE WHICH MEETS STABILITY CRITERION OF THE SINK & SOURCE TERM
 = 0.1000E+31(WHEN MIN. R.F.=1)  AT K=   0, I=   0, J=   0

 MAXIMUM STEPSIZE WHICH MEETS STABILITY CRITERION OF THE DISPERSION TERM
 = 0.5611E-02(WHEN MIN. R.F.=1)  AT K=   3, I=   2, J=  32
     1 CALLS TO GCG PACKAGE FOR TRANSPORT TIME STEP   8 IN FLOW TIME STEP  33 STRESS PERIOD   2
    14 TOTAL ITERATIONS
 
 SOLVING FOR HEAD 
 FLOW MODEL IS TRANSIENT
 FLOW MODEL CONTAINS CONSTANT-HEAD CELLS


 MAXIMUM STEPSIZE DURING WHICH ANY PARTICLE CANNOT MOVE MORE THAN ONE CELL
 = 0.1189    (WHEN MIN. R.F.=1)  AT K=   3, I=   2, J=  33

 MAXIMUM STEPSIZE WHICH MEETS STABILITY CRITERION OF THE ADVECTION TERM
 (FOR PURE FINITE-DIFFERENCE OPTION, MIXELM=0) 
 = 0.8146E-01(WHEN MIN. R.F.=1)  AT K=   3, I=   2, J=  32


 TOTAL NUMBER OF POINT SOURCES/SINKS PRESENT IN THE FLOW MODEL =   240

 MAXIMUM STEPSIZE WHICH MEETS STABILITY CRITERION OF THE SINK & SOURCE TERM
 = 0.1000E+31(WHEN MIN. R.F.=1)  AT K=   0, I=   0, J=   0

 MAXIMUM STEPSIZE WHICH MEETS STABILITY CRITERION OF THE DISPERSION TERM
 = 0.5611E-02(WHEN MIN. R.F.=1)  AT K=   3, I=   2, J=  32
     1 CALLS TO GCG PACKAGE FOR TRANSPORT TIME STEP   9 IN FLOW TIME STEP  33 STRESS PERIOD   2
    14 TOTAL ITERATIONS
 
 SOLVING FOR HEAD 
 FLOW MODEL IS TRANSIENT
 FLOW MODEL CONTAINS CONSTANT-HEAD CELLS


 MAXIMUM STEPSIZE DURING WHICH ANY PARTICLE CANNOT MOVE MORE THAN ONE CELL
 = 0.1189    (WHEN MIN. R.F.=1)  AT K=   3, I=   2, J=  33

 MAXIMUM STEPSIZE WHICH MEETS STABILITY CRITERION OF THE ADVECTION TERM
 (FOR PURE FINITE-DIFFERENCE OPTION, MIXELM=0) 
 = 0.8146E-01(WHEN MIN. R.F.=1)  AT K=   3, I=   2, J=  32


 TOTAL NUMBER OF POINT SOURCES/SINKS PRESENT IN THE FLOW MODEL =   240

 MAXIMUM STEPSIZE WHICH MEETS STABILITY CRITERION OF THE SINK & SOURCE TERM
 = 0.1000E+31(WHEN MIN. R.F.=1)  AT K=   0, I=   0, J=   0

 MAXIMUM STEPSIZE WHICH MEETS STABILITY CRITERION OF THE DISPERSION TERM
 = 0.5611E-02(WHEN MIN. R.F.=1)  AT K=   3, I=   2, J=  32
     1 CALLS TO GCG PACKAGE FOR TRANSPORT TIME STEP  10 IN FLOW TIME STEP  33 STRESS PERIOD   2
    14 TOTAL ITERATIONS



 >>>>>>>>>>>>>>>>>>>>>>>>>>>>>>>>>>>>>>>>>>>>>>>>>>>>>>>FOR COMPONENT NO. 01<<<<<<<<<<<<<<<<<<<<<<<<<<<<<<<<<<<<<<<<<<<<<<<<<<<<<<<


                                            -------------------------------------------
                                                      TRANSPORT STEP NO.   10
                                            -------------------------------------------

 TOTAL ELAPSED TIME SINCE BEGINNING OF SIMULATION =   33.89152    D   
 .....................................................................

                     CUMULATIVE MASS BUDGETS AT END OF TRANSPORT STEP   10, TIME STEP   33, STRESS PERIOD    2
                     ------------------------------------------------------------------------------------------

                                                             IN                           OUT
                                                      ----------------             ----------------
                               CONSTANT CONCENTRATION:    6742.728                   -2784.550    
                                        CONSTANT HEAD:    0.000000                    0.000000    
                               MASS STOR (FLOW MODEL):   0.1225623E-01              -0.3179110E-02
                                MASS STORAGE (SOLUTE):   0.4747130E-02               -3958.194    
                            ---------------------------------------------------------------------------
                                              [TOTAL]:    6742.745     KG            -6742.747     KG  

                                                          NET (IN - OUT):  -0.2170319E-02
                                                   DISCREPANCY (PERCENT):  -0.3218747E-04
 
 SOLVING FOR HEAD 
 FLOW MODEL IS TRANSIENT
 FLOW MODEL CONTAINS CONSTANT-HEAD CELLS


 MAXIMUM STEPSIZE DURING WHICH ANY PARTICLE CANNOT MOVE MORE THAN ONE CELL
 = 0.1189    (WHEN MIN. R.F.=1)  AT K=   3, I=   2, J=  33

 MAXIMUM STEPSIZE WHICH MEETS STABILITY CRITERION OF THE ADVECTION TERM
 (FOR PURE FINITE-DIFFERENCE OPTION, MIXELM=0) 
 = 0.8146E-01(WHEN MIN. R.F.=1)  AT K=   3, I=   2, J=  32


 TOTAL NUMBER OF POINT SOURCES/SINKS PRESENT IN THE FLOW MODEL =   240

 MAXIMUM STEPSIZE WHICH MEETS STABILITY CRITERION OF THE SINK & SOURCE TERM
 = 0.1000E+31(WHEN MIN. R.F.=1)  AT K=   0, I=   0, J=   0

 MAXIMUM STEPSIZE WHICH MEETS STABILITY CRITERION OF THE DISPERSION TERM
 = 0.5611E-02(WHEN MIN. R.F.=1)  AT K=   3, I=   2, J=  32
     1 CALLS TO GCG PACKAGE FOR TRANSPORT TIME STEP  11 IN FLOW TIME STEP  33 STRESS PERIOD   2
    14 TOTAL ITERATIONS
 
 SOLVING FOR HEAD 
 FLOW MODEL IS TRANSIENT
 FLOW MODEL CONTAINS CONSTANT-HEAD CELLS


 MAXIMUM STEPSIZE DURING WHICH ANY PARTICLE CANNOT MOVE MORE THAN ONE CELL
 = 0.1189    (WHEN MIN. R.F.=1)  AT K=   3, I=   2, J=  33

 MAXIMUM STEPSIZE WHICH MEETS STABILITY CRITERION OF THE ADVECTION TERM
 (FOR PURE FINITE-DIFFERENCE OPTION, MIXELM=0) 
 = 0.8146E-01(WHEN MIN. R.F.=1)  AT K=   3, I=   2, J=  32


 TOTAL NUMBER OF POINT SOURCES/SINKS PRESENT IN THE FLOW MODEL =   240

 MAXIMUM STEPSIZE WHICH MEETS STABILITY CRITERION OF THE SINK & SOURCE TERM
 = 0.1000E+31(WHEN MIN. R.F.=1)  AT K=   0, I=   0, J=   0

 MAXIMUM STEPSIZE WHICH MEETS STABILITY CRITERION OF THE DISPERSION TERM
 = 0.5611E-02(WHEN MIN. R.F.=1)  AT K=   3, I=   2, J=  32
     1 CALLS TO GCG PACKAGE FOR TRANSPORT TIME STEP  12 IN FLOW TIME STEP  33 STRESS PERIOD   2
     7 TOTAL ITERATIONS
  MAXIMUM CONCENTRATION CHANGES FOR EACH ITERATION:
  MAX. CHANGE LAYER,ROW,COL MAX. CHANGE LAYER,ROW,COL MAX. CHANGE LAYER,ROW,COL MAX. CHANGE LAYER,ROW,COL MAX. CHANGE LAYER,ROW,COL
 ------------------------------------------------------------------------------------------------------------------------------------
   0.2523E-03 ( 13,  2, 57)  0.3112E-04 (  6,  2, 60)  0.4345E-05 (  5,  2, 57)  0.1544E-05 (  3,  2, 33)  0.6943E-06 (  4,  2, 33)
   0.2724E-06 (  3,  2, 33)  0.7242E-07 (  2,  2, 33)


                                          ================================================
                                                         FROM TIME =   34.000     TO    35.000    

 
 SOLVING FOR HEAD 
 FLOW MODEL IS TRANSIENT
 FLOW MODEL CONTAINS CONSTANT-HEAD CELLS


 MAXIMUM STEPSIZE DURING WHICH ANY PARTICLE CANNOT MOVE MORE THAN ONE CELL
 = 0.1189    (WHEN MIN. R.F.=1)  AT K=   3, I=   2, J=  33

 MAXIMUM STEPSIZE WHICH MEETS STABILITY CRITERION OF THE ADVECTION TERM
 (FOR PURE FINITE-DIFFERENCE OPTION, MIXELM=0) 
 = 0.8146E-01(WHEN MIN. R.F.=1)  AT K=   3, I=   2, J=  32


 TOTAL NUMBER OF POINT SOURCES/SINKS PRESENT IN THE FLOW MODEL =   240

 MAXIMUM STEPSIZE WHICH MEETS STABILITY CRITERION OF THE SINK & SOURCE TERM
 = 0.1000E+31(WHEN MIN. R.F.=1)  AT K=   0, I=   0, J=   0

 MAXIMUM STEPSIZE WHICH MEETS STABILITY CRITERION OF THE DISPERSION TERM
 = 0.5611E-02(WHEN MIN. R.F.=1)  AT K=   3, I=   2, J=  32


     1 CALLS TO GCG PACKAGE FOR TRANSPORT TIME STEP   1 IN FLOW TIME STEP  34 STRESS PERIOD   2
    14 TOTAL ITERATIONS

 NO OUTPUT CONTROL FOR STRESS PERIOD    2   TIME STEP  34
 
 SOLVING FOR HEAD 
 FLOW MODEL IS TRANSIENT
 FLOW MODEL CONTAINS CONSTANT-HEAD CELLS


 MAXIMUM STEPSIZE DURING WHICH ANY PARTICLE CANNOT MOVE MORE THAN ONE CELL
 = 0.1189    (WHEN MIN. R.F.=1)  AT K=   3, I=   2, J=  33

 MAXIMUM STEPSIZE WHICH MEETS STABILITY CRITERION OF THE ADVECTION TERM
 (FOR PURE FINITE-DIFFERENCE OPTION, MIXELM=0) 
 = 0.8146E-01(WHEN MIN. R.F.=1)  AT K=   3, I=   2, J=  32


 TOTAL NUMBER OF POINT SOURCES/SINKS PRESENT IN THE FLOW MODEL =   240

 MAXIMUM STEPSIZE WHICH MEETS STABILITY CRITERION OF THE SINK & SOURCE TERM
 = 0.1000E+31(WHEN MIN. R.F.=1)  AT K=   0, I=   0, J=   0

 MAXIMUM STEPSIZE WHICH MEETS STABILITY CRITERION OF THE DISPERSION TERM
 = 0.5611E-02(WHEN MIN. R.F.=1)  AT K=   3, I=   2, J=  32
     1 CALLS TO GCG PACKAGE FOR TRANSPORT TIME STEP   2 IN FLOW TIME STEP  34 STRESS PERIOD   2
    14 TOTAL ITERATIONS
 
 SOLVING FOR HEAD 
 FLOW MODEL IS TRANSIENT
 FLOW MODEL CONTAINS CONSTANT-HEAD CELLS


 MAXIMUM STEPSIZE DURING WHICH ANY PARTICLE CANNOT MOVE MORE THAN ONE CELL
 = 0.1189    (WHEN MIN. R.F.=1)  AT K=   3, I=   2, J=  33

 MAXIMUM STEPSIZE WHICH MEETS STABILITY CRITERION OF THE ADVECTION TERM
 (FOR PURE FINITE-DIFFERENCE OPTION, MIXELM=0) 
 = 0.8146E-01(WHEN MIN. R.F.=1)  AT K=   3, I=   2, J=  32


 TOTAL NUMBER OF POINT SOURCES/SINKS PRESENT IN THE FLOW MODEL =   240

 MAXIMUM STEPSIZE WHICH MEETS STABILITY CRITERION OF THE SINK & SOURCE TERM
 = 0.1000E+31(WHEN MIN. R.F.=1)  AT K=   0, I=   0, J=   0

 MAXIMUM STEPSIZE WHICH MEETS STABILITY CRITERION OF THE DISPERSION TERM
 = 0.5611E-02(WHEN MIN. R.F.=1)  AT K=   3, I=   2, J=  32
     1 CALLS TO GCG PACKAGE FOR TRANSPORT TIME STEP   3 IN FLOW TIME STEP  34 STRESS PERIOD   2
    14 TOTAL ITERATIONS
 
 SOLVING FOR HEAD 
 FLOW MODEL IS TRANSIENT
 FLOW MODEL CONTAINS CONSTANT-HEAD CELLS


 MAXIMUM STEPSIZE DURING WHICH ANY PARTICLE CANNOT MOVE MORE THAN ONE CELL
 = 0.1189    (WHEN MIN. R.F.=1)  AT K=   3, I=   2, J=  33

 MAXIMUM STEPSIZE WHICH MEETS STABILITY CRITERION OF THE ADVECTION TERM
 (FOR PURE FINITE-DIFFERENCE OPTION, MIXELM=0) 
 = 0.8146E-01(WHEN MIN. R.F.=1)  AT K=   3, I=   2, J=  32


 TOTAL NUMBER OF POINT SOURCES/SINKS PRESENT IN THE FLOW MODEL =   240

 MAXIMUM STEPSIZE WHICH MEETS STABILITY CRITERION OF THE SINK & SOURCE TERM
 = 0.1000E+31(WHEN MIN. R.F.=1)  AT K=   0, I=   0, J=   0

 MAXIMUM STEPSIZE WHICH MEETS STABILITY CRITERION OF THE DISPERSION TERM
 = 0.5611E-02(WHEN MIN. R.F.=1)  AT K=   3, I=   2, J=  32
     1 CALLS TO GCG PACKAGE FOR TRANSPORT TIME STEP   4 IN FLOW TIME STEP  34 STRESS PERIOD   2
    14 TOTAL ITERATIONS
 
 SOLVING FOR HEAD 
 FLOW MODEL IS TRANSIENT
 FLOW MODEL CONTAINS CONSTANT-HEAD CELLS


 MAXIMUM STEPSIZE DURING WHICH ANY PARTICLE CANNOT MOVE MORE THAN ONE CELL
 = 0.1189    (WHEN MIN. R.F.=1)  AT K=   3, I=   2, J=  33

 MAXIMUM STEPSIZE WHICH MEETS STABILITY CRITERION OF THE ADVECTION TERM
 (FOR PURE FINITE-DIFFERENCE OPTION, MIXELM=0) 
 = 0.8146E-01(WHEN MIN. R.F.=1)  AT K=   3, I=   2, J=  32


 TOTAL NUMBER OF POINT SOURCES/SINKS PRESENT IN THE FLOW MODEL =   240

 MAXIMUM STEPSIZE WHICH MEETS STABILITY CRITERION OF THE SINK & SOURCE TERM
 = 0.1000E+31(WHEN MIN. R.F.=1)  AT K=   0, I=   0, J=   0

 MAXIMUM STEPSIZE WHICH MEETS STABILITY CRITERION OF THE DISPERSION TERM
 = 0.5611E-02(WHEN MIN. R.F.=1)  AT K=   3, I=   2, J=  32
     1 CALLS TO GCG PACKAGE FOR TRANSPORT TIME STEP   5 IN FLOW TIME STEP  34 STRESS PERIOD   2
    14 TOTAL ITERATIONS
 
 SOLVING FOR HEAD 
 FLOW MODEL IS TRANSIENT
 FLOW MODEL CONTAINS CONSTANT-HEAD CELLS


 MAXIMUM STEPSIZE DURING WHICH ANY PARTICLE CANNOT MOVE MORE THAN ONE CELL
 = 0.1189    (WHEN MIN. R.F.=1)  AT K=   3, I=   2, J=  33

 MAXIMUM STEPSIZE WHICH MEETS STABILITY CRITERION OF THE ADVECTION TERM
 (FOR PURE FINITE-DIFFERENCE OPTION, MIXELM=0) 
 = 0.8146E-01(WHEN MIN. R.F.=1)  AT K=   3, I=   2, J=  32


 TOTAL NUMBER OF POINT SOURCES/SINKS PRESENT IN THE FLOW MODEL =   240

 MAXIMUM STEPSIZE WHICH MEETS STABILITY CRITERION OF THE SINK & SOURCE TERM
 = 0.1000E+31(WHEN MIN. R.F.=1)  AT K=   0, I=   0, J=   0

 MAXIMUM STEPSIZE WHICH MEETS STABILITY CRITERION OF THE DISPERSION TERM
 = 0.5611E-02(WHEN MIN. R.F.=1)  AT K=   3, I=   2, J=  32
     1 CALLS TO GCG PACKAGE FOR TRANSPORT TIME STEP   6 IN FLOW TIME STEP  34 STRESS PERIOD   2
    14 TOTAL ITERATIONS
 
 SOLVING FOR HEAD 
 FLOW MODEL IS TRANSIENT
 FLOW MODEL CONTAINS CONSTANT-HEAD CELLS


 MAXIMUM STEPSIZE DURING WHICH ANY PARTICLE CANNOT MOVE MORE THAN ONE CELL
 = 0.1189    (WHEN MIN. R.F.=1)  AT K=   3, I=   2, J=  33

 MAXIMUM STEPSIZE WHICH MEETS STABILITY CRITERION OF THE ADVECTION TERM
 (FOR PURE FINITE-DIFFERENCE OPTION, MIXELM=0) 
 = 0.8146E-01(WHEN MIN. R.F.=1)  AT K=   3, I=   2, J=  32


 TOTAL NUMBER OF POINT SOURCES/SINKS PRESENT IN THE FLOW MODEL =   240

 MAXIMUM STEPSIZE WHICH MEETS STABILITY CRITERION OF THE SINK & SOURCE TERM
 = 0.1000E+31(WHEN MIN. R.F.=1)  AT K=   0, I=   0, J=   0

 MAXIMUM STEPSIZE WHICH MEETS STABILITY CRITERION OF THE DISPERSION TERM
 = 0.5611E-02(WHEN MIN. R.F.=1)  AT K=   3, I=   2, J=  32
     1 CALLS TO GCG PACKAGE FOR TRANSPORT TIME STEP   7 IN FLOW TIME STEP  34 STRESS PERIOD   2
    14 TOTAL ITERATIONS
 
 SOLVING FOR HEAD 
 FLOW MODEL IS TRANSIENT
 FLOW MODEL CONTAINS CONSTANT-HEAD CELLS


 MAXIMUM STEPSIZE DURING WHICH ANY PARTICLE CANNOT MOVE MORE THAN ONE CELL
 = 0.1189    (WHEN MIN. R.F.=1)  AT K=   3, I=   2, J=  33

 MAXIMUM STEPSIZE WHICH MEETS STABILITY CRITERION OF THE ADVECTION TERM
 (FOR PURE FINITE-DIFFERENCE OPTION, MIXELM=0) 
 = 0.8145E-01(WHEN MIN. R.F.=1)  AT K=   3, I=   2, J=  32


 TOTAL NUMBER OF POINT SOURCES/SINKS PRESENT IN THE FLOW MODEL =   240

 MAXIMUM STEPSIZE WHICH MEETS STABILITY CRITERION OF THE SINK & SOURCE TERM
 = 0.1000E+31(WHEN MIN. R.F.=1)  AT K=   0, I=   0, J=   0

 MAXIMUM STEPSIZE WHICH MEETS STABILITY CRITERION OF THE DISPERSION TERM
 = 0.5611E-02(WHEN MIN. R.F.=1)  AT K=   3, I=   2, J=  32
     1 CALLS TO GCG PACKAGE FOR TRANSPORT TIME STEP   8 IN FLOW TIME STEP  34 STRESS PERIOD   2
    14 TOTAL ITERATIONS
 
 SOLVING FOR HEAD 
 FLOW MODEL IS TRANSIENT
 FLOW MODEL CONTAINS CONSTANT-HEAD CELLS


 MAXIMUM STEPSIZE DURING WHICH ANY PARTICLE CANNOT MOVE MORE THAN ONE CELL
 = 0.1189    (WHEN MIN. R.F.=1)  AT K=   3, I=   2, J=  33

 MAXIMUM STEPSIZE WHICH MEETS STABILITY CRITERION OF THE ADVECTION TERM
 (FOR PURE FINITE-DIFFERENCE OPTION, MIXELM=0) 
 = 0.8145E-01(WHEN MIN. R.F.=1)  AT K=   3, I=   2, J=  32


 TOTAL NUMBER OF POINT SOURCES/SINKS PRESENT IN THE FLOW MODEL =   240

 MAXIMUM STEPSIZE WHICH MEETS STABILITY CRITERION OF THE SINK & SOURCE TERM
 = 0.1000E+31(WHEN MIN. R.F.=1)  AT K=   0, I=   0, J=   0

 MAXIMUM STEPSIZE WHICH MEETS STABILITY CRITERION OF THE DISPERSION TERM
 = 0.5611E-02(WHEN MIN. R.F.=1)  AT K=   3, I=   2, J=  32
     1 CALLS TO GCG PACKAGE FOR TRANSPORT TIME STEP   9 IN FLOW TIME STEP  34 STRESS PERIOD   2
    14 TOTAL ITERATIONS
 
 SOLVING FOR HEAD 
 FLOW MODEL IS TRANSIENT
 FLOW MODEL CONTAINS CONSTANT-HEAD CELLS


 MAXIMUM STEPSIZE DURING WHICH ANY PARTICLE CANNOT MOVE MORE THAN ONE CELL
 = 0.1189    (WHEN MIN. R.F.=1)  AT K=   3, I=   2, J=  33

 MAXIMUM STEPSIZE WHICH MEETS STABILITY CRITERION OF THE ADVECTION TERM
 (FOR PURE FINITE-DIFFERENCE OPTION, MIXELM=0) 
 = 0.8145E-01(WHEN MIN. R.F.=1)  AT K=   3, I=   2, J=  32


 TOTAL NUMBER OF POINT SOURCES/SINKS PRESENT IN THE FLOW MODEL =   240

 MAXIMUM STEPSIZE WHICH MEETS STABILITY CRITERION OF THE SINK & SOURCE TERM
 = 0.1000E+31(WHEN MIN. R.F.=1)  AT K=   0, I=   0, J=   0

 MAXIMUM STEPSIZE WHICH MEETS STABILITY CRITERION OF THE DISPERSION TERM
 = 0.5611E-02(WHEN MIN. R.F.=1)  AT K=   3, I=   2, J=  32
     1 CALLS TO GCG PACKAGE FOR TRANSPORT TIME STEP  10 IN FLOW TIME STEP  34 STRESS PERIOD   2
    14 TOTAL ITERATIONS



 >>>>>>>>>>>>>>>>>>>>>>>>>>>>>>>>>>>>>>>>>>>>>>>>>>>>>>>FOR COMPONENT NO. 01<<<<<<<<<<<<<<<<<<<<<<<<<<<<<<<<<<<<<<<<<<<<<<<<<<<<<<<


                                            -------------------------------------------
                                                      TRANSPORT STEP NO.   10
                                            -------------------------------------------

 TOTAL ELAPSED TIME SINCE BEGINNING OF SIMULATION =   34.89147    D   
 .....................................................................

                     CUMULATIVE MASS BUDGETS AT END OF TRANSPORT STEP   10, TIME STEP   34, STRESS PERIOD    2
                     ------------------------------------------------------------------------------------------

                                                             IN                           OUT
                                                      ----------------             ----------------
                               CONSTANT CONCENTRATION:    6867.278                   -2875.876    
                                        CONSTANT HEAD:    0.000000                    0.000000    
                               MASS STOR (FLOW MODEL):   0.1227621E-01              -0.3189150E-02
                                MASS STORAGE (SOLUTE):   0.5991029E-02               -3991.420    
                            ---------------------------------------------------------------------------
                                              [TOTAL]:    6867.297     KG            -6867.299     KG  

                                                          NET (IN - OUT):  -0.2229032E-02
                                                   DISCREPANCY (PERCENT):  -0.3245864E-04
 
 SOLVING FOR HEAD 
 FLOW MODEL IS TRANSIENT
 FLOW MODEL CONTAINS CONSTANT-HEAD CELLS


 MAXIMUM STEPSIZE DURING WHICH ANY PARTICLE CANNOT MOVE MORE THAN ONE CELL
 = 0.1189    (WHEN MIN. R.F.=1)  AT K=   3, I=   2, J=  33

 MAXIMUM STEPSIZE WHICH MEETS STABILITY CRITERION OF THE ADVECTION TERM
 (FOR PURE FINITE-DIFFERENCE OPTION, MIXELM=0) 
 = 0.8145E-01(WHEN MIN. R.F.=1)  AT K=   3, I=   2, J=  32


 TOTAL NUMBER OF POINT SOURCES/SINKS PRESENT IN THE FLOW MODEL =   240

 MAXIMUM STEPSIZE WHICH MEETS STABILITY CRITERION OF THE SINK & SOURCE TERM
 = 0.1000E+31(WHEN MIN. R.F.=1)  AT K=   0, I=   0, J=   0

 MAXIMUM STEPSIZE WHICH MEETS STABILITY CRITERION OF THE DISPERSION TERM
 = 0.5611E-02(WHEN MIN. R.F.=1)  AT K=   3, I=   2, J=  32
     1 CALLS TO GCG PACKAGE FOR TRANSPORT TIME STEP  11 IN FLOW TIME STEP  34 STRESS PERIOD   2
    14 TOTAL ITERATIONS
 
 SOLVING FOR HEAD 
 FLOW MODEL IS TRANSIENT
 FLOW MODEL CONTAINS CONSTANT-HEAD CELLS


 MAXIMUM STEPSIZE DURING WHICH ANY PARTICLE CANNOT MOVE MORE THAN ONE CELL
 = 0.1189    (WHEN MIN. R.F.=1)  AT K=   3, I=   2, J=  33

 MAXIMUM STEPSIZE WHICH MEETS STABILITY CRITERION OF THE ADVECTION TERM
 (FOR PURE FINITE-DIFFERENCE OPTION, MIXELM=0) 
 = 0.8145E-01(WHEN MIN. R.F.=1)  AT K=   3, I=   2, J=  32


 TOTAL NUMBER OF POINT SOURCES/SINKS PRESENT IN THE FLOW MODEL =   240

 MAXIMUM STEPSIZE WHICH MEETS STABILITY CRITERION OF THE SINK & SOURCE TERM
 = 0.1000E+31(WHEN MIN. R.F.=1)  AT K=   0, I=   0, J=   0

 MAXIMUM STEPSIZE WHICH MEETS STABILITY CRITERION OF THE DISPERSION TERM
 = 0.5611E-02(WHEN MIN. R.F.=1)  AT K=   3, I=   2, J=  32
     1 CALLS TO GCG PACKAGE FOR TRANSPORT TIME STEP  12 IN FLOW TIME STEP  34 STRESS PERIOD   2
     7 TOTAL ITERATIONS
  MAXIMUM CONCENTRATION CHANGES FOR EACH ITERATION:
  MAX. CHANGE LAYER,ROW,COL MAX. CHANGE LAYER,ROW,COL MAX. CHANGE LAYER,ROW,COL MAX. CHANGE LAYER,ROW,COL MAX. CHANGE LAYER,ROW,COL
 ------------------------------------------------------------------------------------------------------------------------------------
   0.2448E-03 ( 13,  2, 58)  0.2969E-04 (  6,  2, 60)  0.4161E-05 (  5,  2, 57)  0.1451E-05 (  3,  2, 33)  0.6544E-06 (  4,  2, 33)
   0.2575E-06 (  3,  2, 33)  0.6864E-07 (  2,  2, 33)


                                          ================================================
                                                         FROM TIME =   35.000     TO    36.000    

 
 SOLVING FOR HEAD 
 FLOW MODEL IS TRANSIENT
 FLOW MODEL CONTAINS CONSTANT-HEAD CELLS


 MAXIMUM STEPSIZE DURING WHICH ANY PARTICLE CANNOT MOVE MORE THAN ONE CELL
 = 0.1189    (WHEN MIN. R.F.=1)  AT K=   3, I=   2, J=  33

 MAXIMUM STEPSIZE WHICH MEETS STABILITY CRITERION OF THE ADVECTION TERM
 (FOR PURE FINITE-DIFFERENCE OPTION, MIXELM=0) 
 = 0.8145E-01(WHEN MIN. R.F.=1)  AT K=   3, I=   2, J=  32


 TOTAL NUMBER OF POINT SOURCES/SINKS PRESENT IN THE FLOW MODEL =   240

 MAXIMUM STEPSIZE WHICH MEETS STABILITY CRITERION OF THE SINK & SOURCE TERM
 = 0.1000E+31(WHEN MIN. R.F.=1)  AT K=   0, I=   0, J=   0

 MAXIMUM STEPSIZE WHICH MEETS STABILITY CRITERION OF THE DISPERSION TERM
 = 0.5611E-02(WHEN MIN. R.F.=1)  AT K=   3, I=   2, J=  32


     1 CALLS TO GCG PACKAGE FOR TRANSPORT TIME STEP   1 IN FLOW TIME STEP  35 STRESS PERIOD   2
    14 TOTAL ITERATIONS

 NO OUTPUT CONTROL FOR STRESS PERIOD    2   TIME STEP  35
 
 SOLVING FOR HEAD 
 FLOW MODEL IS TRANSIENT
 FLOW MODEL CONTAINS CONSTANT-HEAD CELLS


 MAXIMUM STEPSIZE DURING WHICH ANY PARTICLE CANNOT MOVE MORE THAN ONE CELL
 = 0.1189    (WHEN MIN. R.F.=1)  AT K=   3, I=   2, J=  33

 MAXIMUM STEPSIZE WHICH MEETS STABILITY CRITERION OF THE ADVECTION TERM
 (FOR PURE FINITE-DIFFERENCE OPTION, MIXELM=0) 
 = 0.8145E-01(WHEN MIN. R.F.=1)  AT K=   3, I=   2, J=  32


 TOTAL NUMBER OF POINT SOURCES/SINKS PRESENT IN THE FLOW MODEL =   240

 MAXIMUM STEPSIZE WHICH MEETS STABILITY CRITERION OF THE SINK & SOURCE TERM
 = 0.1000E+31(WHEN MIN. R.F.=1)  AT K=   0, I=   0, J=   0

 MAXIMUM STEPSIZE WHICH MEETS STABILITY CRITERION OF THE DISPERSION TERM
 = 0.5611E-02(WHEN MIN. R.F.=1)  AT K=   3, I=   2, J=  32
     1 CALLS TO GCG PACKAGE FOR TRANSPORT TIME STEP   2 IN FLOW TIME STEP  35 STRESS PERIOD   2
    14 TOTAL ITERATIONS
 
 SOLVING FOR HEAD 
 FLOW MODEL IS TRANSIENT
 FLOW MODEL CONTAINS CONSTANT-HEAD CELLS


 MAXIMUM STEPSIZE DURING WHICH ANY PARTICLE CANNOT MOVE MORE THAN ONE CELL
 = 0.1189    (WHEN MIN. R.F.=1)  AT K=   3, I=   2, J=  33

 MAXIMUM STEPSIZE WHICH MEETS STABILITY CRITERION OF THE ADVECTION TERM
 (FOR PURE FINITE-DIFFERENCE OPTION, MIXELM=0) 
 = 0.8145E-01(WHEN MIN. R.F.=1)  AT K=   3, I=   2, J=  32


 TOTAL NUMBER OF POINT SOURCES/SINKS PRESENT IN THE FLOW MODEL =   240

 MAXIMUM STEPSIZE WHICH MEETS STABILITY CRITERION OF THE SINK & SOURCE TERM
 = 0.1000E+31(WHEN MIN. R.F.=1)  AT K=   0, I=   0, J=   0

 MAXIMUM STEPSIZE WHICH MEETS STABILITY CRITERION OF THE DISPERSION TERM
 = 0.5611E-02(WHEN MIN. R.F.=1)  AT K=   3, I=   2, J=  32
     1 CALLS TO GCG PACKAGE FOR TRANSPORT TIME STEP   3 IN FLOW TIME STEP  35 STRESS PERIOD   2
    14 TOTAL ITERATIONS
 
 SOLVING FOR HEAD 
 FLOW MODEL IS TRANSIENT
 FLOW MODEL CONTAINS CONSTANT-HEAD CELLS


 MAXIMUM STEPSIZE DURING WHICH ANY PARTICLE CANNOT MOVE MORE THAN ONE CELL
 = 0.1189    (WHEN MIN. R.F.=1)  AT K=   3, I=   2, J=  33

 MAXIMUM STEPSIZE WHICH MEETS STABILITY CRITERION OF THE ADVECTION TERM
 (FOR PURE FINITE-DIFFERENCE OPTION, MIXELM=0) 
 = 0.8145E-01(WHEN MIN. R.F.=1)  AT K=   3, I=   2, J=  32


 TOTAL NUMBER OF POINT SOURCES/SINKS PRESENT IN THE FLOW MODEL =   240

 MAXIMUM STEPSIZE WHICH MEETS STABILITY CRITERION OF THE SINK & SOURCE TERM
 = 0.1000E+31(WHEN MIN. R.F.=1)  AT K=   0, I=   0, J=   0

 MAXIMUM STEPSIZE WHICH MEETS STABILITY CRITERION OF THE DISPERSION TERM
 = 0.5611E-02(WHEN MIN. R.F.=1)  AT K=   3, I=   2, J=  32
     1 CALLS TO GCG PACKAGE FOR TRANSPORT TIME STEP   4 IN FLOW TIME STEP  35 STRESS PERIOD   2
    14 TOTAL ITERATIONS
 
 SOLVING FOR HEAD 
 FLOW MODEL IS TRANSIENT
 FLOW MODEL CONTAINS CONSTANT-HEAD CELLS


 MAXIMUM STEPSIZE DURING WHICH ANY PARTICLE CANNOT MOVE MORE THAN ONE CELL
 = 0.1189    (WHEN MIN. R.F.=1)  AT K=   3, I=   2, J=  33

 MAXIMUM STEPSIZE WHICH MEETS STABILITY CRITERION OF THE ADVECTION TERM
 (FOR PURE FINITE-DIFFERENCE OPTION, MIXELM=0) 
 = 0.8145E-01(WHEN MIN. R.F.=1)  AT K=   3, I=   2, J=  32


 TOTAL NUMBER OF POINT SOURCES/SINKS PRESENT IN THE FLOW MODEL =   240

 MAXIMUM STEPSIZE WHICH MEETS STABILITY CRITERION OF THE SINK & SOURCE TERM
 = 0.1000E+31(WHEN MIN. R.F.=1)  AT K=   0, I=   0, J=   0

 MAXIMUM STEPSIZE WHICH MEETS STABILITY CRITERION OF THE DISPERSION TERM
 = 0.5611E-02(WHEN MIN. R.F.=1)  AT K=   3, I=   2, J=  32
     1 CALLS TO GCG PACKAGE FOR TRANSPORT TIME STEP   5 IN FLOW TIME STEP  35 STRESS PERIOD   2
    14 TOTAL ITERATIONS
 
 SOLVING FOR HEAD 
 FLOW MODEL IS TRANSIENT
 FLOW MODEL CONTAINS CONSTANT-HEAD CELLS


 MAXIMUM STEPSIZE DURING WHICH ANY PARTICLE CANNOT MOVE MORE THAN ONE CELL
 = 0.1189    (WHEN MIN. R.F.=1)  AT K=   3, I=   2, J=  33

 MAXIMUM STEPSIZE WHICH MEETS STABILITY CRITERION OF THE ADVECTION TERM
 (FOR PURE FINITE-DIFFERENCE OPTION, MIXELM=0) 
 = 0.8145E-01(WHEN MIN. R.F.=1)  AT K=   3, I=   2, J=  32


 TOTAL NUMBER OF POINT SOURCES/SINKS PRESENT IN THE FLOW MODEL =   240

 MAXIMUM STEPSIZE WHICH MEETS STABILITY CRITERION OF THE SINK & SOURCE TERM
 = 0.1000E+31(WHEN MIN. R.F.=1)  AT K=   0, I=   0, J=   0

 MAXIMUM STEPSIZE WHICH MEETS STABILITY CRITERION OF THE DISPERSION TERM
 = 0.5611E-02(WHEN MIN. R.F.=1)  AT K=   3, I=   2, J=  32
     1 CALLS TO GCG PACKAGE FOR TRANSPORT TIME STEP   6 IN FLOW TIME STEP  35 STRESS PERIOD   2
    14 TOTAL ITERATIONS
 
 SOLVING FOR HEAD 
 FLOW MODEL IS TRANSIENT
 FLOW MODEL CONTAINS CONSTANT-HEAD CELLS


 MAXIMUM STEPSIZE DURING WHICH ANY PARTICLE CANNOT MOVE MORE THAN ONE CELL
 = 0.1189    (WHEN MIN. R.F.=1)  AT K=   3, I=   2, J=  33

 MAXIMUM STEPSIZE WHICH MEETS STABILITY CRITERION OF THE ADVECTION TERM
 (FOR PURE FINITE-DIFFERENCE OPTION, MIXELM=0) 
 = 0.8145E-01(WHEN MIN. R.F.=1)  AT K=   3, I=   2, J=  32


 TOTAL NUMBER OF POINT SOURCES/SINKS PRESENT IN THE FLOW MODEL =   240

 MAXIMUM STEPSIZE WHICH MEETS STABILITY CRITERION OF THE SINK & SOURCE TERM
 = 0.1000E+31(WHEN MIN. R.F.=1)  AT K=   0, I=   0, J=   0

 MAXIMUM STEPSIZE WHICH MEETS STABILITY CRITERION OF THE DISPERSION TERM
 = 0.5611E-02(WHEN MIN. R.F.=1)  AT K=   3, I=   2, J=  32
     1 CALLS TO GCG PACKAGE FOR TRANSPORT TIME STEP   7 IN FLOW TIME STEP  35 STRESS PERIOD   2
    14 TOTAL ITERATIONS
 
 SOLVING FOR HEAD 
 FLOW MODEL IS TRANSIENT
 FLOW MODEL CONTAINS CONSTANT-HEAD CELLS


 MAXIMUM STEPSIZE DURING WHICH ANY PARTICLE CANNOT MOVE MORE THAN ONE CELL
 = 0.1189    (WHEN MIN. R.F.=1)  AT K=   3, I=   2, J=  33

 MAXIMUM STEPSIZE WHICH MEETS STABILITY CRITERION OF THE ADVECTION TERM
 (FOR PURE FINITE-DIFFERENCE OPTION, MIXELM=0) 
 = 0.8145E-01(WHEN MIN. R.F.=1)  AT K=   3, I=   2, J=  32


 TOTAL NUMBER OF POINT SOURCES/SINKS PRESENT IN THE FLOW MODEL =   240

 MAXIMUM STEPSIZE WHICH MEETS STABILITY CRITERION OF THE SINK & SOURCE TERM
 = 0.1000E+31(WHEN MIN. R.F.=1)  AT K=   0, I=   0, J=   0

 MAXIMUM STEPSIZE WHICH MEETS STABILITY CRITERION OF THE DISPERSION TERM
 = 0.5611E-02(WHEN MIN. R.F.=1)  AT K=   3, I=   2, J=  32
     1 CALLS TO GCG PACKAGE FOR TRANSPORT TIME STEP   8 IN FLOW TIME STEP  35 STRESS PERIOD   2
    14 TOTAL ITERATIONS
 
 SOLVING FOR HEAD 
 FLOW MODEL IS TRANSIENT
 FLOW MODEL CONTAINS CONSTANT-HEAD CELLS


 MAXIMUM STEPSIZE DURING WHICH ANY PARTICLE CANNOT MOVE MORE THAN ONE CELL
 = 0.1189    (WHEN MIN. R.F.=1)  AT K=   3, I=   2, J=  33

 MAXIMUM STEPSIZE WHICH MEETS STABILITY CRITERION OF THE ADVECTION TERM
 (FOR PURE FINITE-DIFFERENCE OPTION, MIXELM=0) 
 = 0.8145E-01(WHEN MIN. R.F.=1)  AT K=   3, I=   2, J=  32


 TOTAL NUMBER OF POINT SOURCES/SINKS PRESENT IN THE FLOW MODEL =   240

 MAXIMUM STEPSIZE WHICH MEETS STABILITY CRITERION OF THE SINK & SOURCE TERM
 = 0.1000E+31(WHEN MIN. R.F.=1)  AT K=   0, I=   0, J=   0

 MAXIMUM STEPSIZE WHICH MEETS STABILITY CRITERION OF THE DISPERSION TERM
 = 0.5610E-02(WHEN MIN. R.F.=1)  AT K=   3, I=   2, J=  32
     1 CALLS TO GCG PACKAGE FOR TRANSPORT TIME STEP   9 IN FLOW TIME STEP  35 STRESS PERIOD   2
    14 TOTAL ITERATIONS
 
 SOLVING FOR HEAD 
 FLOW MODEL IS TRANSIENT
 FLOW MODEL CONTAINS CONSTANT-HEAD CELLS


 MAXIMUM STEPSIZE DURING WHICH ANY PARTICLE CANNOT MOVE MORE THAN ONE CELL
 = 0.1189    (WHEN MIN. R.F.=1)  AT K=   3, I=   2, J=  33

 MAXIMUM STEPSIZE WHICH MEETS STABILITY CRITERION OF THE ADVECTION TERM
 (FOR PURE FINITE-DIFFERENCE OPTION, MIXELM=0) 
 = 0.8145E-01(WHEN MIN. R.F.=1)  AT K=   3, I=   2, J=  32


 TOTAL NUMBER OF POINT SOURCES/SINKS PRESENT IN THE FLOW MODEL =   240

 MAXIMUM STEPSIZE WHICH MEETS STABILITY CRITERION OF THE SINK & SOURCE TERM
 = 0.1000E+31(WHEN MIN. R.F.=1)  AT K=   0, I=   0, J=   0

 MAXIMUM STEPSIZE WHICH MEETS STABILITY CRITERION OF THE DISPERSION TERM
 = 0.5610E-02(WHEN MIN. R.F.=1)  AT K=   3, I=   2, J=  32
     1 CALLS TO GCG PACKAGE FOR TRANSPORT TIME STEP  10 IN FLOW TIME STEP  35 STRESS PERIOD   2
    14 TOTAL ITERATIONS



 >>>>>>>>>>>>>>>>>>>>>>>>>>>>>>>>>>>>>>>>>>>>>>>>>>>>>>>FOR COMPONENT NO. 01<<<<<<<<<<<<<<<<<<<<<<<<<<<<<<<<<<<<<<<<<<<<<<<<<<<<<<<


                                            -------------------------------------------
                                                      TRANSPORT STEP NO.   10
                                            -------------------------------------------

 TOTAL ELAPSED TIME SINCE BEGINNING OF SIMULATION =   35.89143    D   
 .....................................................................

                     CUMULATIVE MASS BUDGETS AT END OF TRANSPORT STEP   10, TIME STEP   35, STRESS PERIOD    2
                     ------------------------------------------------------------------------------------------

                                                             IN                           OUT
                                                      ----------------             ----------------
                               CONSTANT CONCENTRATION:    6990.805                   -2967.288    
                                        CONSTANT HEAD:    0.000000                    0.000000    
                               MASS STOR (FLOW MODEL):   0.1229623E-01              -0.3198713E-02
                                MASS STORAGE (SOLUTE):   0.1605839E-01               -4023.544    
                            ---------------------------------------------------------------------------
                                              [TOTAL]:    6990.834     KG            -6990.836     KG  

                                                          NET (IN - OUT):  -0.2284532E-02
                                                   DISCREPANCY (PERCENT):  -0.3267895E-04
 
 SOLVING FOR HEAD 
 FLOW MODEL IS TRANSIENT
 FLOW MODEL CONTAINS CONSTANT-HEAD CELLS


 MAXIMUM STEPSIZE DURING WHICH ANY PARTICLE CANNOT MOVE MORE THAN ONE CELL
 = 0.1189    (WHEN MIN. R.F.=1)  AT K=   3, I=   2, J=  33

 MAXIMUM STEPSIZE WHICH MEETS STABILITY CRITERION OF THE ADVECTION TERM
 (FOR PURE FINITE-DIFFERENCE OPTION, MIXELM=0) 
 = 0.8145E-01(WHEN MIN. R.F.=1)  AT K=   3, I=   2, J=  32


 TOTAL NUMBER OF POINT SOURCES/SINKS PRESENT IN THE FLOW MODEL =   240

 MAXIMUM STEPSIZE WHICH MEETS STABILITY CRITERION OF THE SINK & SOURCE TERM
 = 0.1000E+31(WHEN MIN. R.F.=1)  AT K=   0, I=   0, J=   0

 MAXIMUM STEPSIZE WHICH MEETS STABILITY CRITERION OF THE DISPERSION TERM
 = 0.5610E-02(WHEN MIN. R.F.=1)  AT K=   3, I=   2, J=  32
     1 CALLS TO GCG PACKAGE FOR TRANSPORT TIME STEP  11 IN FLOW TIME STEP  35 STRESS PERIOD   2
    14 TOTAL ITERATIONS
 
 SOLVING FOR HEAD 
 FLOW MODEL IS TRANSIENT
 FLOW MODEL CONTAINS CONSTANT-HEAD CELLS


 MAXIMUM STEPSIZE DURING WHICH ANY PARTICLE CANNOT MOVE MORE THAN ONE CELL
 = 0.1189    (WHEN MIN. R.F.=1)  AT K=   3, I=   2, J=  33

 MAXIMUM STEPSIZE WHICH MEETS STABILITY CRITERION OF THE ADVECTION TERM
 (FOR PURE FINITE-DIFFERENCE OPTION, MIXELM=0) 
 = 0.8145E-01(WHEN MIN. R.F.=1)  AT K=   3, I=   2, J=  32


 TOTAL NUMBER OF POINT SOURCES/SINKS PRESENT IN THE FLOW MODEL =   240

 MAXIMUM STEPSIZE WHICH MEETS STABILITY CRITERION OF THE SINK & SOURCE TERM
 = 0.1000E+31(WHEN MIN. R.F.=1)  AT K=   0, I=   0, J=   0

 MAXIMUM STEPSIZE WHICH MEETS STABILITY CRITERION OF THE DISPERSION TERM
 = 0.5610E-02(WHEN MIN. R.F.=1)  AT K=   3, I=   2, J=  32
     1 CALLS TO GCG PACKAGE FOR TRANSPORT TIME STEP  12 IN FLOW TIME STEP  35 STRESS PERIOD   2
     7 TOTAL ITERATIONS
  MAXIMUM CONCENTRATION CHANGES FOR EACH ITERATION:
  MAX. CHANGE LAYER,ROW,COL MAX. CHANGE LAYER,ROW,COL MAX. CHANGE LAYER,ROW,COL MAX. CHANGE LAYER,ROW,COL MAX. CHANGE LAYER,ROW,COL
 ------------------------------------------------------------------------------------------------------------------------------------
   0.2386E-03 ( 13,  2, 58)  0.2835E-04 (  6,  2, 60)  0.3988E-05 (  5,  2, 57)  0.1367E-05 (  3,  2, 33)  0.6178E-06 (  4,  2, 33)
   0.2438E-06 (  3,  2, 33)  0.6514E-07 (  2,  2, 33)


                                          ================================================
                                                         FROM TIME =   36.000     TO    37.000    

 
 SOLVING FOR HEAD 
 FLOW MODEL IS TRANSIENT
 FLOW MODEL CONTAINS CONSTANT-HEAD CELLS


 MAXIMUM STEPSIZE DURING WHICH ANY PARTICLE CANNOT MOVE MORE THAN ONE CELL
 = 0.1189    (WHEN MIN. R.F.=1)  AT K=   3, I=   2, J=  33

 MAXIMUM STEPSIZE WHICH MEETS STABILITY CRITERION OF THE ADVECTION TERM
 (FOR PURE FINITE-DIFFERENCE OPTION, MIXELM=0) 
 = 0.8145E-01(WHEN MIN. R.F.=1)  AT K=   3, I=   2, J=  32


 TOTAL NUMBER OF POINT SOURCES/SINKS PRESENT IN THE FLOW MODEL =   240

 MAXIMUM STEPSIZE WHICH MEETS STABILITY CRITERION OF THE SINK & SOURCE TERM
 = 0.1000E+31(WHEN MIN. R.F.=1)  AT K=   0, I=   0, J=   0

 MAXIMUM STEPSIZE WHICH MEETS STABILITY CRITERION OF THE DISPERSION TERM
 = 0.5610E-02(WHEN MIN. R.F.=1)  AT K=   3, I=   2, J=  32


     1 CALLS TO GCG PACKAGE FOR TRANSPORT TIME STEP   1 IN FLOW TIME STEP  36 STRESS PERIOD   2
    14 TOTAL ITERATIONS

 NO OUTPUT CONTROL FOR STRESS PERIOD    2   TIME STEP  36
 
 SOLVING FOR HEAD 
 FLOW MODEL IS TRANSIENT
 FLOW MODEL CONTAINS CONSTANT-HEAD CELLS


 MAXIMUM STEPSIZE DURING WHICH ANY PARTICLE CANNOT MOVE MORE THAN ONE CELL
 = 0.1189    (WHEN MIN. R.F.=1)  AT K=   3, I=   2, J=  33

 MAXIMUM STEPSIZE WHICH MEETS STABILITY CRITERION OF THE ADVECTION TERM
 (FOR PURE FINITE-DIFFERENCE OPTION, MIXELM=0) 
 = 0.8145E-01(WHEN MIN. R.F.=1)  AT K=   3, I=   2, J=  32


 TOTAL NUMBER OF POINT SOURCES/SINKS PRESENT IN THE FLOW MODEL =   240

 MAXIMUM STEPSIZE WHICH MEETS STABILITY CRITERION OF THE SINK & SOURCE TERM
 = 0.1000E+31(WHEN MIN. R.F.=1)  AT K=   0, I=   0, J=   0

 MAXIMUM STEPSIZE WHICH MEETS STABILITY CRITERION OF THE DISPERSION TERM
 = 0.5610E-02(WHEN MIN. R.F.=1)  AT K=   3, I=   2, J=  32
     1 CALLS TO GCG PACKAGE FOR TRANSPORT TIME STEP   2 IN FLOW TIME STEP  36 STRESS PERIOD   2
    14 TOTAL ITERATIONS
 
 SOLVING FOR HEAD 
 FLOW MODEL IS TRANSIENT
 FLOW MODEL CONTAINS CONSTANT-HEAD CELLS


 MAXIMUM STEPSIZE DURING WHICH ANY PARTICLE CANNOT MOVE MORE THAN ONE CELL
 = 0.1189    (WHEN MIN. R.F.=1)  AT K=   3, I=   2, J=  33

 MAXIMUM STEPSIZE WHICH MEETS STABILITY CRITERION OF THE ADVECTION TERM
 (FOR PURE FINITE-DIFFERENCE OPTION, MIXELM=0) 
 = 0.8145E-01(WHEN MIN. R.F.=1)  AT K=   3, I=   2, J=  32


 TOTAL NUMBER OF POINT SOURCES/SINKS PRESENT IN THE FLOW MODEL =   240

 MAXIMUM STEPSIZE WHICH MEETS STABILITY CRITERION OF THE SINK & SOURCE TERM
 = 0.1000E+31(WHEN MIN. R.F.=1)  AT K=   0, I=   0, J=   0

 MAXIMUM STEPSIZE WHICH MEETS STABILITY CRITERION OF THE DISPERSION TERM
 = 0.5610E-02(WHEN MIN. R.F.=1)  AT K=   3, I=   2, J=  32
     1 CALLS TO GCG PACKAGE FOR TRANSPORT TIME STEP   3 IN FLOW TIME STEP  36 STRESS PERIOD   2
    14 TOTAL ITERATIONS
 
 SOLVING FOR HEAD 
 FLOW MODEL IS TRANSIENT
 FLOW MODEL CONTAINS CONSTANT-HEAD CELLS


 MAXIMUM STEPSIZE DURING WHICH ANY PARTICLE CANNOT MOVE MORE THAN ONE CELL
 = 0.1189    (WHEN MIN. R.F.=1)  AT K=   3, I=   2, J=  33

 MAXIMUM STEPSIZE WHICH MEETS STABILITY CRITERION OF THE ADVECTION TERM
 (FOR PURE FINITE-DIFFERENCE OPTION, MIXELM=0) 
 = 0.8145E-01(WHEN MIN. R.F.=1)  AT K=   3, I=   2, J=  32


 TOTAL NUMBER OF POINT SOURCES/SINKS PRESENT IN THE FLOW MODEL =   240

 MAXIMUM STEPSIZE WHICH MEETS STABILITY CRITERION OF THE SINK & SOURCE TERM
 = 0.1000E+31(WHEN MIN. R.F.=1)  AT K=   0, I=   0, J=   0

 MAXIMUM STEPSIZE WHICH MEETS STABILITY CRITERION OF THE DISPERSION TERM
 = 0.5610E-02(WHEN MIN. R.F.=1)  AT K=   3, I=   2, J=  32
     1 CALLS TO GCG PACKAGE FOR TRANSPORT TIME STEP   4 IN FLOW TIME STEP  36 STRESS PERIOD   2
    14 TOTAL ITERATIONS
 
 SOLVING FOR HEAD 
 FLOW MODEL IS TRANSIENT
 FLOW MODEL CONTAINS CONSTANT-HEAD CELLS


 MAXIMUM STEPSIZE DURING WHICH ANY PARTICLE CANNOT MOVE MORE THAN ONE CELL
 = 0.1189    (WHEN MIN. R.F.=1)  AT K=   3, I=   2, J=  33

 MAXIMUM STEPSIZE WHICH MEETS STABILITY CRITERION OF THE ADVECTION TERM
 (FOR PURE FINITE-DIFFERENCE OPTION, MIXELM=0) 
 = 0.8145E-01(WHEN MIN. R.F.=1)  AT K=   3, I=   2, J=  32


 TOTAL NUMBER OF POINT SOURCES/SINKS PRESENT IN THE FLOW MODEL =   240

 MAXIMUM STEPSIZE WHICH MEETS STABILITY CRITERION OF THE SINK & SOURCE TERM
 = 0.1000E+31(WHEN MIN. R.F.=1)  AT K=   0, I=   0, J=   0

 MAXIMUM STEPSIZE WHICH MEETS STABILITY CRITERION OF THE DISPERSION TERM
 = 0.5610E-02(WHEN MIN. R.F.=1)  AT K=   3, I=   2, J=  32
     1 CALLS TO GCG PACKAGE FOR TRANSPORT TIME STEP   5 IN FLOW TIME STEP  36 STRESS PERIOD   2
    14 TOTAL ITERATIONS
 
 SOLVING FOR HEAD 
 FLOW MODEL IS TRANSIENT
 FLOW MODEL CONTAINS CONSTANT-HEAD CELLS


 MAXIMUM STEPSIZE DURING WHICH ANY PARTICLE CANNOT MOVE MORE THAN ONE CELL
 = 0.1189    (WHEN MIN. R.F.=1)  AT K=   3, I=   2, J=  33

 MAXIMUM STEPSIZE WHICH MEETS STABILITY CRITERION OF THE ADVECTION TERM
 (FOR PURE FINITE-DIFFERENCE OPTION, MIXELM=0) 
 = 0.8145E-01(WHEN MIN. R.F.=1)  AT K=   3, I=   2, J=  32


 TOTAL NUMBER OF POINT SOURCES/SINKS PRESENT IN THE FLOW MODEL =   240

 MAXIMUM STEPSIZE WHICH MEETS STABILITY CRITERION OF THE SINK & SOURCE TERM
 = 0.1000E+31(WHEN MIN. R.F.=1)  AT K=   0, I=   0, J=   0

 MAXIMUM STEPSIZE WHICH MEETS STABILITY CRITERION OF THE DISPERSION TERM
 = 0.5610E-02(WHEN MIN. R.F.=1)  AT K=   3, I=   2, J=  32
     1 CALLS TO GCG PACKAGE FOR TRANSPORT TIME STEP   6 IN FLOW TIME STEP  36 STRESS PERIOD   2
    14 TOTAL ITERATIONS
 
 SOLVING FOR HEAD 
 FLOW MODEL IS TRANSIENT
 FLOW MODEL CONTAINS CONSTANT-HEAD CELLS


 MAXIMUM STEPSIZE DURING WHICH ANY PARTICLE CANNOT MOVE MORE THAN ONE CELL
 = 0.1188    (WHEN MIN. R.F.=1)  AT K=   3, I=   2, J=  33

 MAXIMUM STEPSIZE WHICH MEETS STABILITY CRITERION OF THE ADVECTION TERM
 (FOR PURE FINITE-DIFFERENCE OPTION, MIXELM=0) 
 = 0.8145E-01(WHEN MIN. R.F.=1)  AT K=   3, I=   2, J=  32


 TOTAL NUMBER OF POINT SOURCES/SINKS PRESENT IN THE FLOW MODEL =   240

 MAXIMUM STEPSIZE WHICH MEETS STABILITY CRITERION OF THE SINK & SOURCE TERM
 = 0.1000E+31(WHEN MIN. R.F.=1)  AT K=   0, I=   0, J=   0

 MAXIMUM STEPSIZE WHICH MEETS STABILITY CRITERION OF THE DISPERSION TERM
 = 0.5610E-02(WHEN MIN. R.F.=1)  AT K=   3, I=   2, J=  32
     1 CALLS TO GCG PACKAGE FOR TRANSPORT TIME STEP   7 IN FLOW TIME STEP  36 STRESS PERIOD   2
    14 TOTAL ITERATIONS
 
 SOLVING FOR HEAD 
 FLOW MODEL IS TRANSIENT
 FLOW MODEL CONTAINS CONSTANT-HEAD CELLS


 MAXIMUM STEPSIZE DURING WHICH ANY PARTICLE CANNOT MOVE MORE THAN ONE CELL
 = 0.1188    (WHEN MIN. R.F.=1)  AT K=   3, I=   2, J=  33

 MAXIMUM STEPSIZE WHICH MEETS STABILITY CRITERION OF THE ADVECTION TERM
 (FOR PURE FINITE-DIFFERENCE OPTION, MIXELM=0) 
 = 0.8145E-01(WHEN MIN. R.F.=1)  AT K=   3, I=   2, J=  32


 TOTAL NUMBER OF POINT SOURCES/SINKS PRESENT IN THE FLOW MODEL =   240

 MAXIMUM STEPSIZE WHICH MEETS STABILITY CRITERION OF THE SINK & SOURCE TERM
 = 0.1000E+31(WHEN MIN. R.F.=1)  AT K=   0, I=   0, J=   0

 MAXIMUM STEPSIZE WHICH MEETS STABILITY CRITERION OF THE DISPERSION TERM
 = 0.5610E-02(WHEN MIN. R.F.=1)  AT K=   3, I=   2, J=  32
     1 CALLS TO GCG PACKAGE FOR TRANSPORT TIME STEP   8 IN FLOW TIME STEP  36 STRESS PERIOD   2
    14 TOTAL ITERATIONS
 
 SOLVING FOR HEAD 
 FLOW MODEL IS TRANSIENT
 FLOW MODEL CONTAINS CONSTANT-HEAD CELLS


 MAXIMUM STEPSIZE DURING WHICH ANY PARTICLE CANNOT MOVE MORE THAN ONE CELL
 = 0.1188    (WHEN MIN. R.F.=1)  AT K=   3, I=   2, J=  33

 MAXIMUM STEPSIZE WHICH MEETS STABILITY CRITERION OF THE ADVECTION TERM
 (FOR PURE FINITE-DIFFERENCE OPTION, MIXELM=0) 
 = 0.8145E-01(WHEN MIN. R.F.=1)  AT K=   3, I=   2, J=  32


 TOTAL NUMBER OF POINT SOURCES/SINKS PRESENT IN THE FLOW MODEL =   240

 MAXIMUM STEPSIZE WHICH MEETS STABILITY CRITERION OF THE SINK & SOURCE TERM
 = 0.1000E+31(WHEN MIN. R.F.=1)  AT K=   0, I=   0, J=   0

 MAXIMUM STEPSIZE WHICH MEETS STABILITY CRITERION OF THE DISPERSION TERM
 = 0.5610E-02(WHEN MIN. R.F.=1)  AT K=   3, I=   2, J=  32
     1 CALLS TO GCG PACKAGE FOR TRANSPORT TIME STEP   9 IN FLOW TIME STEP  36 STRESS PERIOD   2
    14 TOTAL ITERATIONS
 
 SOLVING FOR HEAD 
 FLOW MODEL IS TRANSIENT
 FLOW MODEL CONTAINS CONSTANT-HEAD CELLS


 MAXIMUM STEPSIZE DURING WHICH ANY PARTICLE CANNOT MOVE MORE THAN ONE CELL
 = 0.1188    (WHEN MIN. R.F.=1)  AT K=   3, I=   2, J=  33

 MAXIMUM STEPSIZE WHICH MEETS STABILITY CRITERION OF THE ADVECTION TERM
 (FOR PURE FINITE-DIFFERENCE OPTION, MIXELM=0) 
 = 0.8145E-01(WHEN MIN. R.F.=1)  AT K=   3, I=   2, J=  32


 TOTAL NUMBER OF POINT SOURCES/SINKS PRESENT IN THE FLOW MODEL =   240

 MAXIMUM STEPSIZE WHICH MEETS STABILITY CRITERION OF THE SINK & SOURCE TERM
 = 0.1000E+31(WHEN MIN. R.F.=1)  AT K=   0, I=   0, J=   0

 MAXIMUM STEPSIZE WHICH MEETS STABILITY CRITERION OF THE DISPERSION TERM
 = 0.5610E-02(WHEN MIN. R.F.=1)  AT K=   3, I=   2, J=  32
     1 CALLS TO GCG PACKAGE FOR TRANSPORT TIME STEP  10 IN FLOW TIME STEP  36 STRESS PERIOD   2
    14 TOTAL ITERATIONS



 >>>>>>>>>>>>>>>>>>>>>>>>>>>>>>>>>>>>>>>>>>>>>>>>>>>>>>>FOR COMPONENT NO. 01<<<<<<<<<<<<<<<<<<<<<<<<<<<<<<<<<<<<<<<<<<<<<<<<<<<<<<<


                                            -------------------------------------------
                                                      TRANSPORT STEP NO.   10
                                            -------------------------------------------

 TOTAL ELAPSED TIME SINCE BEGINNING OF SIMULATION =   36.89138    D   
 .....................................................................

                     CUMULATIVE MASS BUDGETS AT END OF TRANSPORT STEP   10, TIME STEP   36, STRESS PERIOD    2
                     ------------------------------------------------------------------------------------------

                                                             IN                           OUT
                                                      ----------------             ----------------
                               CONSTANT CONCENTRATION:    7113.367                   -3058.782    
                                        CONSTANT HEAD:    0.000000                    0.000000    
                               MASS STOR (FLOW MODEL):   0.1231628E-01              -0.3207839E-02
                                MASS STORAGE (SOLUTE):   0.5454392E-01               -4054.651    
                            ---------------------------------------------------------------------------
                                              [TOTAL]:    7113.434     KG            -7113.437     KG  

                                                          NET (IN - OUT):  -0.2336971E-02
                                                   DISCREPANCY (PERCENT):  -0.3285291E-04
 
 SOLVING FOR HEAD 
 FLOW MODEL IS TRANSIENT
 FLOW MODEL CONTAINS CONSTANT-HEAD CELLS


 MAXIMUM STEPSIZE DURING WHICH ANY PARTICLE CANNOT MOVE MORE THAN ONE CELL
 = 0.1188    (WHEN MIN. R.F.=1)  AT K=   3, I=   2, J=  33

 MAXIMUM STEPSIZE WHICH MEETS STABILITY CRITERION OF THE ADVECTION TERM
 (FOR PURE FINITE-DIFFERENCE OPTION, MIXELM=0) 
 = 0.8145E-01(WHEN MIN. R.F.=1)  AT K=   3, I=   2, J=  32


 TOTAL NUMBER OF POINT SOURCES/SINKS PRESENT IN THE FLOW MODEL =   240

 MAXIMUM STEPSIZE WHICH MEETS STABILITY CRITERION OF THE SINK & SOURCE TERM
 = 0.1000E+31(WHEN MIN. R.F.=1)  AT K=   0, I=   0, J=   0

 MAXIMUM STEPSIZE WHICH MEETS STABILITY CRITERION OF THE DISPERSION TERM
 = 0.5610E-02(WHEN MIN. R.F.=1)  AT K=   3, I=   2, J=  32
     1 CALLS TO GCG PACKAGE FOR TRANSPORT TIME STEP  11 IN FLOW TIME STEP  36 STRESS PERIOD   2
    14 TOTAL ITERATIONS
 
 SOLVING FOR HEAD 
 FLOW MODEL IS TRANSIENT
 FLOW MODEL CONTAINS CONSTANT-HEAD CELLS


 MAXIMUM STEPSIZE DURING WHICH ANY PARTICLE CANNOT MOVE MORE THAN ONE CELL
 = 0.1188    (WHEN MIN. R.F.=1)  AT K=   3, I=   2, J=  33

 MAXIMUM STEPSIZE WHICH MEETS STABILITY CRITERION OF THE ADVECTION TERM
 (FOR PURE FINITE-DIFFERENCE OPTION, MIXELM=0) 
 = 0.8145E-01(WHEN MIN. R.F.=1)  AT K=   3, I=   2, J=  32


 TOTAL NUMBER OF POINT SOURCES/SINKS PRESENT IN THE FLOW MODEL =   240

 MAXIMUM STEPSIZE WHICH MEETS STABILITY CRITERION OF THE SINK & SOURCE TERM
 = 0.1000E+31(WHEN MIN. R.F.=1)  AT K=   0, I=   0, J=   0

 MAXIMUM STEPSIZE WHICH MEETS STABILITY CRITERION OF THE DISPERSION TERM
 = 0.5610E-02(WHEN MIN. R.F.=1)  AT K=   3, I=   2, J=  32
     1 CALLS TO GCG PACKAGE FOR TRANSPORT TIME STEP  12 IN FLOW TIME STEP  36 STRESS PERIOD   2
     7 TOTAL ITERATIONS
  MAXIMUM CONCENTRATION CHANGES FOR EACH ITERATION:
  MAX. CHANGE LAYER,ROW,COL MAX. CHANGE LAYER,ROW,COL MAX. CHANGE LAYER,ROW,COL MAX. CHANGE LAYER,ROW,COL MAX. CHANGE LAYER,ROW,COL
 ------------------------------------------------------------------------------------------------------------------------------------
   0.2327E-03 ( 13,  2, 58)  0.2709E-04 (  6,  2, 60)  0.3824E-05 (  5,  2, 57)  0.1290E-05 (  3,  2, 33)  0.5842E-06 (  4,  2, 33)
   0.2311E-06 (  3,  2, 33)  0.6192E-07 (  2,  2, 33)


                                          ================================================
                                                         FROM TIME =   37.000     TO    38.000    

 
 SOLVING FOR HEAD 
 FLOW MODEL IS TRANSIENT
 FLOW MODEL CONTAINS CONSTANT-HEAD CELLS


 MAXIMUM STEPSIZE DURING WHICH ANY PARTICLE CANNOT MOVE MORE THAN ONE CELL
 = 0.1188    (WHEN MIN. R.F.=1)  AT K=   3, I=   2, J=  33

 MAXIMUM STEPSIZE WHICH MEETS STABILITY CRITERION OF THE ADVECTION TERM
 (FOR PURE FINITE-DIFFERENCE OPTION, MIXELM=0) 
 = 0.8145E-01(WHEN MIN. R.F.=1)  AT K=   3, I=   2, J=  32


 TOTAL NUMBER OF POINT SOURCES/SINKS PRESENT IN THE FLOW MODEL =   240

 MAXIMUM STEPSIZE WHICH MEETS STABILITY CRITERION OF THE SINK & SOURCE TERM
 = 0.1000E+31(WHEN MIN. R.F.=1)  AT K=   0, I=   0, J=   0

 MAXIMUM STEPSIZE WHICH MEETS STABILITY CRITERION OF THE DISPERSION TERM
 = 0.5610E-02(WHEN MIN. R.F.=1)  AT K=   3, I=   2, J=  32


     1 CALLS TO GCG PACKAGE FOR TRANSPORT TIME STEP   1 IN FLOW TIME STEP  37 STRESS PERIOD   2
    14 TOTAL ITERATIONS

 NO OUTPUT CONTROL FOR STRESS PERIOD    2   TIME STEP  37
 
 SOLVING FOR HEAD 
 FLOW MODEL IS TRANSIENT
 FLOW MODEL CONTAINS CONSTANT-HEAD CELLS


 MAXIMUM STEPSIZE DURING WHICH ANY PARTICLE CANNOT MOVE MORE THAN ONE CELL
 = 0.1188    (WHEN MIN. R.F.=1)  AT K=   3, I=   2, J=  33

 MAXIMUM STEPSIZE WHICH MEETS STABILITY CRITERION OF THE ADVECTION TERM
 (FOR PURE FINITE-DIFFERENCE OPTION, MIXELM=0) 
 = 0.8145E-01(WHEN MIN. R.F.=1)  AT K=   3, I=   2, J=  32


 TOTAL NUMBER OF POINT SOURCES/SINKS PRESENT IN THE FLOW MODEL =   240

 MAXIMUM STEPSIZE WHICH MEETS STABILITY CRITERION OF THE SINK & SOURCE TERM
 = 0.1000E+31(WHEN MIN. R.F.=1)  AT K=   0, I=   0, J=   0

 MAXIMUM STEPSIZE WHICH MEETS STABILITY CRITERION OF THE DISPERSION TERM
 = 0.5610E-02(WHEN MIN. R.F.=1)  AT K=   3, I=   2, J=  32
     1 CALLS TO GCG PACKAGE FOR TRANSPORT TIME STEP   2 IN FLOW TIME STEP  37 STRESS PERIOD   2
    14 TOTAL ITERATIONS
 
 SOLVING FOR HEAD 
 FLOW MODEL IS TRANSIENT
 FLOW MODEL CONTAINS CONSTANT-HEAD CELLS


 MAXIMUM STEPSIZE DURING WHICH ANY PARTICLE CANNOT MOVE MORE THAN ONE CELL
 = 0.1188    (WHEN MIN. R.F.=1)  AT K=   3, I=   2, J=  33

 MAXIMUM STEPSIZE WHICH MEETS STABILITY CRITERION OF THE ADVECTION TERM
 (FOR PURE FINITE-DIFFERENCE OPTION, MIXELM=0) 
 = 0.8145E-01(WHEN MIN. R.F.=1)  AT K=   3, I=   2, J=  32


 TOTAL NUMBER OF POINT SOURCES/SINKS PRESENT IN THE FLOW MODEL =   240

 MAXIMUM STEPSIZE WHICH MEETS STABILITY CRITERION OF THE SINK & SOURCE TERM
 = 0.1000E+31(WHEN MIN. R.F.=1)  AT K=   0, I=   0, J=   0

 MAXIMUM STEPSIZE WHICH MEETS STABILITY CRITERION OF THE DISPERSION TERM
 = 0.5610E-02(WHEN MIN. R.F.=1)  AT K=   3, I=   2, J=  32
     1 CALLS TO GCG PACKAGE FOR TRANSPORT TIME STEP   3 IN FLOW TIME STEP  37 STRESS PERIOD   2
    14 TOTAL ITERATIONS
 
 SOLVING FOR HEAD 
 FLOW MODEL IS TRANSIENT
 FLOW MODEL CONTAINS CONSTANT-HEAD CELLS


 MAXIMUM STEPSIZE DURING WHICH ANY PARTICLE CANNOT MOVE MORE THAN ONE CELL
 = 0.1188    (WHEN MIN. R.F.=1)  AT K=   3, I=   2, J=  33

 MAXIMUM STEPSIZE WHICH MEETS STABILITY CRITERION OF THE ADVECTION TERM
 (FOR PURE FINITE-DIFFERENCE OPTION, MIXELM=0) 
 = 0.8145E-01(WHEN MIN. R.F.=1)  AT K=   3, I=   2, J=  32


 TOTAL NUMBER OF POINT SOURCES/SINKS PRESENT IN THE FLOW MODEL =   240

 MAXIMUM STEPSIZE WHICH MEETS STABILITY CRITERION OF THE SINK & SOURCE TERM
 = 0.1000E+31(WHEN MIN. R.F.=1)  AT K=   0, I=   0, J=   0

 MAXIMUM STEPSIZE WHICH MEETS STABILITY CRITERION OF THE DISPERSION TERM
 = 0.5610E-02(WHEN MIN. R.F.=1)  AT K=   3, I=   2, J=  32
     1 CALLS TO GCG PACKAGE FOR TRANSPORT TIME STEP   4 IN FLOW TIME STEP  37 STRESS PERIOD   2
    14 TOTAL ITERATIONS
 
 SOLVING FOR HEAD 
 FLOW MODEL IS TRANSIENT
 FLOW MODEL CONTAINS CONSTANT-HEAD CELLS


 MAXIMUM STEPSIZE DURING WHICH ANY PARTICLE CANNOT MOVE MORE THAN ONE CELL
 = 0.1188    (WHEN MIN. R.F.=1)  AT K=   3, I=   2, J=  33

 MAXIMUM STEPSIZE WHICH MEETS STABILITY CRITERION OF THE ADVECTION TERM
 (FOR PURE FINITE-DIFFERENCE OPTION, MIXELM=0) 
 = 0.8145E-01(WHEN MIN. R.F.=1)  AT K=   3, I=   2, J=  32


 TOTAL NUMBER OF POINT SOURCES/SINKS PRESENT IN THE FLOW MODEL =   240

 MAXIMUM STEPSIZE WHICH MEETS STABILITY CRITERION OF THE SINK & SOURCE TERM
 = 0.1000E+31(WHEN MIN. R.F.=1)  AT K=   0, I=   0, J=   0

 MAXIMUM STEPSIZE WHICH MEETS STABILITY CRITERION OF THE DISPERSION TERM
 = 0.5610E-02(WHEN MIN. R.F.=1)  AT K=   3, I=   2, J=  32
     1 CALLS TO GCG PACKAGE FOR TRANSPORT TIME STEP   5 IN FLOW TIME STEP  37 STRESS PERIOD   2
    14 TOTAL ITERATIONS
 
 SOLVING FOR HEAD 
 FLOW MODEL IS TRANSIENT
 FLOW MODEL CONTAINS CONSTANT-HEAD CELLS


 MAXIMUM STEPSIZE DURING WHICH ANY PARTICLE CANNOT MOVE MORE THAN ONE CELL
 = 0.1188    (WHEN MIN. R.F.=1)  AT K=   3, I=   2, J=  33

 MAXIMUM STEPSIZE WHICH MEETS STABILITY CRITERION OF THE ADVECTION TERM
 (FOR PURE FINITE-DIFFERENCE OPTION, MIXELM=0) 
 = 0.8144E-01(WHEN MIN. R.F.=1)  AT K=   3, I=   2, J=  32


 TOTAL NUMBER OF POINT SOURCES/SINKS PRESENT IN THE FLOW MODEL =   240

 MAXIMUM STEPSIZE WHICH MEETS STABILITY CRITERION OF THE SINK & SOURCE TERM
 = 0.1000E+31(WHEN MIN. R.F.=1)  AT K=   0, I=   0, J=   0

 MAXIMUM STEPSIZE WHICH MEETS STABILITY CRITERION OF THE DISPERSION TERM
 = 0.5610E-02(WHEN MIN. R.F.=1)  AT K=   3, I=   2, J=  32
     1 CALLS TO GCG PACKAGE FOR TRANSPORT TIME STEP   6 IN FLOW TIME STEP  37 STRESS PERIOD   2
    14 TOTAL ITERATIONS
 
 SOLVING FOR HEAD 
 FLOW MODEL IS TRANSIENT
 FLOW MODEL CONTAINS CONSTANT-HEAD CELLS


 MAXIMUM STEPSIZE DURING WHICH ANY PARTICLE CANNOT MOVE MORE THAN ONE CELL
 = 0.1188    (WHEN MIN. R.F.=1)  AT K=   3, I=   2, J=  33

 MAXIMUM STEPSIZE WHICH MEETS STABILITY CRITERION OF THE ADVECTION TERM
 (FOR PURE FINITE-DIFFERENCE OPTION, MIXELM=0) 
 = 0.8144E-01(WHEN MIN. R.F.=1)  AT K=   3, I=   2, J=  32


 TOTAL NUMBER OF POINT SOURCES/SINKS PRESENT IN THE FLOW MODEL =   240

 MAXIMUM STEPSIZE WHICH MEETS STABILITY CRITERION OF THE SINK & SOURCE TERM
 = 0.1000E+31(WHEN MIN. R.F.=1)  AT K=   0, I=   0, J=   0

 MAXIMUM STEPSIZE WHICH MEETS STABILITY CRITERION OF THE DISPERSION TERM
 = 0.5610E-02(WHEN MIN. R.F.=1)  AT K=   3, I=   2, J=  32
     1 CALLS TO GCG PACKAGE FOR TRANSPORT TIME STEP   7 IN FLOW TIME STEP  37 STRESS PERIOD   2
    14 TOTAL ITERATIONS
 
 SOLVING FOR HEAD 
 FLOW MODEL IS TRANSIENT
 FLOW MODEL CONTAINS CONSTANT-HEAD CELLS


 MAXIMUM STEPSIZE DURING WHICH ANY PARTICLE CANNOT MOVE MORE THAN ONE CELL
 = 0.1188    (WHEN MIN. R.F.=1)  AT K=   3, I=   2, J=  33

 MAXIMUM STEPSIZE WHICH MEETS STABILITY CRITERION OF THE ADVECTION TERM
 (FOR PURE FINITE-DIFFERENCE OPTION, MIXELM=0) 
 = 0.8144E-01(WHEN MIN. R.F.=1)  AT K=   3, I=   2, J=  32


 TOTAL NUMBER OF POINT SOURCES/SINKS PRESENT IN THE FLOW MODEL =   240

 MAXIMUM STEPSIZE WHICH MEETS STABILITY CRITERION OF THE SINK & SOURCE TERM
 = 0.1000E+31(WHEN MIN. R.F.=1)  AT K=   0, I=   0, J=   0

 MAXIMUM STEPSIZE WHICH MEETS STABILITY CRITERION OF THE DISPERSION TERM
 = 0.5610E-02(WHEN MIN. R.F.=1)  AT K=   3, I=   2, J=  32
     1 CALLS TO GCG PACKAGE FOR TRANSPORT TIME STEP   8 IN FLOW TIME STEP  37 STRESS PERIOD   2
    14 TOTAL ITERATIONS
 
 SOLVING FOR HEAD 
 FLOW MODEL IS TRANSIENT
 FLOW MODEL CONTAINS CONSTANT-HEAD CELLS


 MAXIMUM STEPSIZE DURING WHICH ANY PARTICLE CANNOT MOVE MORE THAN ONE CELL
 = 0.1188    (WHEN MIN. R.F.=1)  AT K=   3, I=   2, J=  33

 MAXIMUM STEPSIZE WHICH MEETS STABILITY CRITERION OF THE ADVECTION TERM
 (FOR PURE FINITE-DIFFERENCE OPTION, MIXELM=0) 
 = 0.8144E-01(WHEN MIN. R.F.=1)  AT K=   3, I=   2, J=  32


 TOTAL NUMBER OF POINT SOURCES/SINKS PRESENT IN THE FLOW MODEL =   240

 MAXIMUM STEPSIZE WHICH MEETS STABILITY CRITERION OF THE SINK & SOURCE TERM
 = 0.1000E+31(WHEN MIN. R.F.=1)  AT K=   0, I=   0, J=   0

 MAXIMUM STEPSIZE WHICH MEETS STABILITY CRITERION OF THE DISPERSION TERM
 = 0.5610E-02(WHEN MIN. R.F.=1)  AT K=   3, I=   2, J=  32
     1 CALLS TO GCG PACKAGE FOR TRANSPORT TIME STEP   9 IN FLOW TIME STEP  37 STRESS PERIOD   2
    14 TOTAL ITERATIONS
 
 SOLVING FOR HEAD 
 FLOW MODEL IS TRANSIENT
 FLOW MODEL CONTAINS CONSTANT-HEAD CELLS


 MAXIMUM STEPSIZE DURING WHICH ANY PARTICLE CANNOT MOVE MORE THAN ONE CELL
 = 0.1188    (WHEN MIN. R.F.=1)  AT K=   3, I=   2, J=  33

 MAXIMUM STEPSIZE WHICH MEETS STABILITY CRITERION OF THE ADVECTION TERM
 (FOR PURE FINITE-DIFFERENCE OPTION, MIXELM=0) 
 = 0.8144E-01(WHEN MIN. R.F.=1)  AT K=   3, I=   2, J=  32


 TOTAL NUMBER OF POINT SOURCES/SINKS PRESENT IN THE FLOW MODEL =   240

 MAXIMUM STEPSIZE WHICH MEETS STABILITY CRITERION OF THE SINK & SOURCE TERM
 = 0.1000E+31(WHEN MIN. R.F.=1)  AT K=   0, I=   0, J=   0

 MAXIMUM STEPSIZE WHICH MEETS STABILITY CRITERION OF THE DISPERSION TERM
 = 0.5610E-02(WHEN MIN. R.F.=1)  AT K=   3, I=   2, J=  32
     1 CALLS TO GCG PACKAGE FOR TRANSPORT TIME STEP  10 IN FLOW TIME STEP  37 STRESS PERIOD   2
    14 TOTAL ITERATIONS



 >>>>>>>>>>>>>>>>>>>>>>>>>>>>>>>>>>>>>>>>>>>>>>>>>>>>>>>FOR COMPONENT NO. 01<<<<<<<<<<<<<<<<<<<<<<<<<<<<<<<<<<<<<<<<<<<<<<<<<<<<<<<


                                            -------------------------------------------
                                                      TRANSPORT STEP NO.   10
                                            -------------------------------------------

 TOTAL ELAPSED TIME SINCE BEGINNING OF SIMULATION =   37.89134    D   
 .....................................................................

                     CUMULATIVE MASS BUDGETS AT END OF TRANSPORT STEP   10, TIME STEP   37, STRESS PERIOD    2
                     ------------------------------------------------------------------------------------------

                                                             IN                           OUT
                                                      ----------------             ----------------
                               CONSTANT CONCENTRATION:    7235.019                   -3150.352    
                                        CONSTANT HEAD:    0.000000                    0.000000    
                               MASS STOR (FLOW MODEL):   0.1233631E-01              -0.3216565E-02
                                MASS STORAGE (SOLUTE):   0.1261374                   -4084.805    
                            ---------------------------------------------------------------------------
                                              [TOTAL]:    7235.158     KG            -7235.160     KG  

                                                          NET (IN - OUT):  -0.2386528E-02
                                                   DISCREPANCY (PERCENT):  -0.3298514E-04
 
 SOLVING FOR HEAD 
 FLOW MODEL IS TRANSIENT
 FLOW MODEL CONTAINS CONSTANT-HEAD CELLS


 MAXIMUM STEPSIZE DURING WHICH ANY PARTICLE CANNOT MOVE MORE THAN ONE CELL
 = 0.1188    (WHEN MIN. R.F.=1)  AT K=   3, I=   2, J=  33

 MAXIMUM STEPSIZE WHICH MEETS STABILITY CRITERION OF THE ADVECTION TERM
 (FOR PURE FINITE-DIFFERENCE OPTION, MIXELM=0) 
 = 0.8144E-01(WHEN MIN. R.F.=1)  AT K=   3, I=   2, J=  32


 TOTAL NUMBER OF POINT SOURCES/SINKS PRESENT IN THE FLOW MODEL =   240

 MAXIMUM STEPSIZE WHICH MEETS STABILITY CRITERION OF THE SINK & SOURCE TERM
 = 0.1000E+31(WHEN MIN. R.F.=1)  AT K=   0, I=   0, J=   0

 MAXIMUM STEPSIZE WHICH MEETS STABILITY CRITERION OF THE DISPERSION TERM
 = 0.5610E-02(WHEN MIN. R.F.=1)  AT K=   3, I=   2, J=  32
     1 CALLS TO GCG PACKAGE FOR TRANSPORT TIME STEP  11 IN FLOW TIME STEP  37 STRESS PERIOD   2
    14 TOTAL ITERATIONS
 
 SOLVING FOR HEAD 
 FLOW MODEL IS TRANSIENT
 FLOW MODEL CONTAINS CONSTANT-HEAD CELLS


 MAXIMUM STEPSIZE DURING WHICH ANY PARTICLE CANNOT MOVE MORE THAN ONE CELL
 = 0.1188    (WHEN MIN. R.F.=1)  AT K=   3, I=   2, J=  33

 MAXIMUM STEPSIZE WHICH MEETS STABILITY CRITERION OF THE ADVECTION TERM
 (FOR PURE FINITE-DIFFERENCE OPTION, MIXELM=0) 
 = 0.8144E-01(WHEN MIN. R.F.=1)  AT K=   3, I=   2, J=  32


 TOTAL NUMBER OF POINT SOURCES/SINKS PRESENT IN THE FLOW MODEL =   240

 MAXIMUM STEPSIZE WHICH MEETS STABILITY CRITERION OF THE SINK & SOURCE TERM
 = 0.1000E+31(WHEN MIN. R.F.=1)  AT K=   0, I=   0, J=   0

 MAXIMUM STEPSIZE WHICH MEETS STABILITY CRITERION OF THE DISPERSION TERM
 = 0.5610E-02(WHEN MIN. R.F.=1)  AT K=   3, I=   2, J=  32
     1 CALLS TO GCG PACKAGE FOR TRANSPORT TIME STEP  12 IN FLOW TIME STEP  37 STRESS PERIOD   2
     7 TOTAL ITERATIONS
  MAXIMUM CONCENTRATION CHANGES FOR EACH ITERATION:
  MAX. CHANGE LAYER,ROW,COL MAX. CHANGE LAYER,ROW,COL MAX. CHANGE LAYER,ROW,COL MAX. CHANGE LAYER,ROW,COL MAX. CHANGE LAYER,ROW,COL
 ------------------------------------------------------------------------------------------------------------------------------------
   0.2270E-03 ( 13,  2, 58)  0.2590E-04 (  6,  2, 60)  0.3669E-05 (  5,  2, 57)  0.1219E-05 (  3,  2, 33)  0.5533E-06 (  4,  2, 33)
   0.2194E-06 (  3,  2, 33)  0.5894E-07 (  2,  2, 33)


                                          ================================================
                                                         FROM TIME =   38.000     TO    39.000    

 
 SOLVING FOR HEAD 
 FLOW MODEL IS TRANSIENT
 FLOW MODEL CONTAINS CONSTANT-HEAD CELLS


 MAXIMUM STEPSIZE DURING WHICH ANY PARTICLE CANNOT MOVE MORE THAN ONE CELL
 = 0.1188    (WHEN MIN. R.F.=1)  AT K=   3, I=   2, J=  33

 MAXIMUM STEPSIZE WHICH MEETS STABILITY CRITERION OF THE ADVECTION TERM
 (FOR PURE FINITE-DIFFERENCE OPTION, MIXELM=0) 
 = 0.8144E-01(WHEN MIN. R.F.=1)  AT K=   3, I=   2, J=  32


 TOTAL NUMBER OF POINT SOURCES/SINKS PRESENT IN THE FLOW MODEL =   240

 MAXIMUM STEPSIZE WHICH MEETS STABILITY CRITERION OF THE SINK & SOURCE TERM
 = 0.1000E+31(WHEN MIN. R.F.=1)  AT K=   0, I=   0, J=   0

 MAXIMUM STEPSIZE WHICH MEETS STABILITY CRITERION OF THE DISPERSION TERM
 = 0.5610E-02(WHEN MIN. R.F.=1)  AT K=   3, I=   2, J=  32


     1 CALLS TO GCG PACKAGE FOR TRANSPORT TIME STEP   1 IN FLOW TIME STEP  38 STRESS PERIOD   2
    14 TOTAL ITERATIONS

 NO OUTPUT CONTROL FOR STRESS PERIOD    2   TIME STEP  38
 
 SOLVING FOR HEAD 
 FLOW MODEL IS TRANSIENT
 FLOW MODEL CONTAINS CONSTANT-HEAD CELLS


 MAXIMUM STEPSIZE DURING WHICH ANY PARTICLE CANNOT MOVE MORE THAN ONE CELL
 = 0.1188    (WHEN MIN. R.F.=1)  AT K=   3, I=   2, J=  33

 MAXIMUM STEPSIZE WHICH MEETS STABILITY CRITERION OF THE ADVECTION TERM
 (FOR PURE FINITE-DIFFERENCE OPTION, MIXELM=0) 
 = 0.8144E-01(WHEN MIN. R.F.=1)  AT K=   3, I=   2, J=  32


 TOTAL NUMBER OF POINT SOURCES/SINKS PRESENT IN THE FLOW MODEL =   240

 MAXIMUM STEPSIZE WHICH MEETS STABILITY CRITERION OF THE SINK & SOURCE TERM
 = 0.1000E+31(WHEN MIN. R.F.=1)  AT K=   0, I=   0, J=   0

 MAXIMUM STEPSIZE WHICH MEETS STABILITY CRITERION OF THE DISPERSION TERM
 = 0.5610E-02(WHEN MIN. R.F.=1)  AT K=   3, I=   2, J=  32
     1 CALLS TO GCG PACKAGE FOR TRANSPORT TIME STEP   2 IN FLOW TIME STEP  38 STRESS PERIOD   2
    14 TOTAL ITERATIONS
 
 SOLVING FOR HEAD 
 FLOW MODEL IS TRANSIENT
 FLOW MODEL CONTAINS CONSTANT-HEAD CELLS


 MAXIMUM STEPSIZE DURING WHICH ANY PARTICLE CANNOT MOVE MORE THAN ONE CELL
 = 0.1188    (WHEN MIN. R.F.=1)  AT K=   3, I=   2, J=  33

 MAXIMUM STEPSIZE WHICH MEETS STABILITY CRITERION OF THE ADVECTION TERM
 (FOR PURE FINITE-DIFFERENCE OPTION, MIXELM=0) 
 = 0.8144E-01(WHEN MIN. R.F.=1)  AT K=   3, I=   2, J=  32


 TOTAL NUMBER OF POINT SOURCES/SINKS PRESENT IN THE FLOW MODEL =   240

 MAXIMUM STEPSIZE WHICH MEETS STABILITY CRITERION OF THE SINK & SOURCE TERM
 = 0.1000E+31(WHEN MIN. R.F.=1)  AT K=   0, I=   0, J=   0

 MAXIMUM STEPSIZE WHICH MEETS STABILITY CRITERION OF THE DISPERSION TERM
 = 0.5610E-02(WHEN MIN. R.F.=1)  AT K=   3, I=   2, J=  32
     1 CALLS TO GCG PACKAGE FOR TRANSPORT TIME STEP   3 IN FLOW TIME STEP  38 STRESS PERIOD   2
    14 TOTAL ITERATIONS
 
 SOLVING FOR HEAD 
 FLOW MODEL IS TRANSIENT
 FLOW MODEL CONTAINS CONSTANT-HEAD CELLS


 MAXIMUM STEPSIZE DURING WHICH ANY PARTICLE CANNOT MOVE MORE THAN ONE CELL
 = 0.1188    (WHEN MIN. R.F.=1)  AT K=   3, I=   2, J=  33

 MAXIMUM STEPSIZE WHICH MEETS STABILITY CRITERION OF THE ADVECTION TERM
 (FOR PURE FINITE-DIFFERENCE OPTION, MIXELM=0) 
 = 0.8144E-01(WHEN MIN. R.F.=1)  AT K=   3, I=   2, J=  32


 TOTAL NUMBER OF POINT SOURCES/SINKS PRESENT IN THE FLOW MODEL =   240

 MAXIMUM STEPSIZE WHICH MEETS STABILITY CRITERION OF THE SINK & SOURCE TERM
 = 0.1000E+31(WHEN MIN. R.F.=1)  AT K=   0, I=   0, J=   0

 MAXIMUM STEPSIZE WHICH MEETS STABILITY CRITERION OF THE DISPERSION TERM
 = 0.5610E-02(WHEN MIN. R.F.=1)  AT K=   3, I=   2, J=  32
     1 CALLS TO GCG PACKAGE FOR TRANSPORT TIME STEP   4 IN FLOW TIME STEP  38 STRESS PERIOD   2
    14 TOTAL ITERATIONS
 
 SOLVING FOR HEAD 
 FLOW MODEL IS TRANSIENT
 FLOW MODEL CONTAINS CONSTANT-HEAD CELLS


 MAXIMUM STEPSIZE DURING WHICH ANY PARTICLE CANNOT MOVE MORE THAN ONE CELL
 = 0.1188    (WHEN MIN. R.F.=1)  AT K=   3, I=   2, J=  33

 MAXIMUM STEPSIZE WHICH MEETS STABILITY CRITERION OF THE ADVECTION TERM
 (FOR PURE FINITE-DIFFERENCE OPTION, MIXELM=0) 
 = 0.8144E-01(WHEN MIN. R.F.=1)  AT K=   3, I=   2, J=  32


 TOTAL NUMBER OF POINT SOURCES/SINKS PRESENT IN THE FLOW MODEL =   240

 MAXIMUM STEPSIZE WHICH MEETS STABILITY CRITERION OF THE SINK & SOURCE TERM
 = 0.1000E+31(WHEN MIN. R.F.=1)  AT K=   0, I=   0, J=   0

 MAXIMUM STEPSIZE WHICH MEETS STABILITY CRITERION OF THE DISPERSION TERM
 = 0.5610E-02(WHEN MIN. R.F.=1)  AT K=   3, I=   2, J=  32
     1 CALLS TO GCG PACKAGE FOR TRANSPORT TIME STEP   5 IN FLOW TIME STEP  38 STRESS PERIOD   2
    14 TOTAL ITERATIONS
 
 SOLVING FOR HEAD 
 FLOW MODEL IS TRANSIENT
 FLOW MODEL CONTAINS CONSTANT-HEAD CELLS


 MAXIMUM STEPSIZE DURING WHICH ANY PARTICLE CANNOT MOVE MORE THAN ONE CELL
 = 0.1188    (WHEN MIN. R.F.=1)  AT K=   3, I=   2, J=  33

 MAXIMUM STEPSIZE WHICH MEETS STABILITY CRITERION OF THE ADVECTION TERM
 (FOR PURE FINITE-DIFFERENCE OPTION, MIXELM=0) 
 = 0.8144E-01(WHEN MIN. R.F.=1)  AT K=   3, I=   2, J=  32


 TOTAL NUMBER OF POINT SOURCES/SINKS PRESENT IN THE FLOW MODEL =   240

 MAXIMUM STEPSIZE WHICH MEETS STABILITY CRITERION OF THE SINK & SOURCE TERM
 = 0.1000E+31(WHEN MIN. R.F.=1)  AT K=   0, I=   0, J=   0

 MAXIMUM STEPSIZE WHICH MEETS STABILITY CRITERION OF THE DISPERSION TERM
 = 0.5610E-02(WHEN MIN. R.F.=1)  AT K=   3, I=   2, J=  32
     1 CALLS TO GCG PACKAGE FOR TRANSPORT TIME STEP   6 IN FLOW TIME STEP  38 STRESS PERIOD   2
    14 TOTAL ITERATIONS
 
 SOLVING FOR HEAD 
 FLOW MODEL IS TRANSIENT
 FLOW MODEL CONTAINS CONSTANT-HEAD CELLS


 MAXIMUM STEPSIZE DURING WHICH ANY PARTICLE CANNOT MOVE MORE THAN ONE CELL
 = 0.1188    (WHEN MIN. R.F.=1)  AT K=   3, I=   2, J=  33

 MAXIMUM STEPSIZE WHICH MEETS STABILITY CRITERION OF THE ADVECTION TERM
 (FOR PURE FINITE-DIFFERENCE OPTION, MIXELM=0) 
 = 0.8144E-01(WHEN MIN. R.F.=1)  AT K=   3, I=   2, J=  32


 TOTAL NUMBER OF POINT SOURCES/SINKS PRESENT IN THE FLOW MODEL =   240

 MAXIMUM STEPSIZE WHICH MEETS STABILITY CRITERION OF THE SINK & SOURCE TERM
 = 0.1000E+31(WHEN MIN. R.F.=1)  AT K=   0, I=   0, J=   0

 MAXIMUM STEPSIZE WHICH MEETS STABILITY CRITERION OF THE DISPERSION TERM
 = 0.5610E-02(WHEN MIN. R.F.=1)  AT K=   3, I=   2, J=  32
     1 CALLS TO GCG PACKAGE FOR TRANSPORT TIME STEP   7 IN FLOW TIME STEP  38 STRESS PERIOD   2
    14 TOTAL ITERATIONS
 
 SOLVING FOR HEAD 
 FLOW MODEL IS TRANSIENT
 FLOW MODEL CONTAINS CONSTANT-HEAD CELLS


 MAXIMUM STEPSIZE DURING WHICH ANY PARTICLE CANNOT MOVE MORE THAN ONE CELL
 = 0.1188    (WHEN MIN. R.F.=1)  AT K=   3, I=   2, J=  33

 MAXIMUM STEPSIZE WHICH MEETS STABILITY CRITERION OF THE ADVECTION TERM
 (FOR PURE FINITE-DIFFERENCE OPTION, MIXELM=0) 
 = 0.8144E-01(WHEN MIN. R.F.=1)  AT K=   3, I=   2, J=  32


 TOTAL NUMBER OF POINT SOURCES/SINKS PRESENT IN THE FLOW MODEL =   240

 MAXIMUM STEPSIZE WHICH MEETS STABILITY CRITERION OF THE SINK & SOURCE TERM
 = 0.1000E+31(WHEN MIN. R.F.=1)  AT K=   0, I=   0, J=   0

 MAXIMUM STEPSIZE WHICH MEETS STABILITY CRITERION OF THE DISPERSION TERM
 = 0.5610E-02(WHEN MIN. R.F.=1)  AT K=   3, I=   2, J=  32
     1 CALLS TO GCG PACKAGE FOR TRANSPORT TIME STEP   8 IN FLOW TIME STEP  38 STRESS PERIOD   2
    14 TOTAL ITERATIONS
 
 SOLVING FOR HEAD 
 FLOW MODEL IS TRANSIENT
 FLOW MODEL CONTAINS CONSTANT-HEAD CELLS


 MAXIMUM STEPSIZE DURING WHICH ANY PARTICLE CANNOT MOVE MORE THAN ONE CELL
 = 0.1188    (WHEN MIN. R.F.=1)  AT K=   3, I=   2, J=  33

 MAXIMUM STEPSIZE WHICH MEETS STABILITY CRITERION OF THE ADVECTION TERM
 (FOR PURE FINITE-DIFFERENCE OPTION, MIXELM=0) 
 = 0.8144E-01(WHEN MIN. R.F.=1)  AT K=   3, I=   2, J=  32


 TOTAL NUMBER OF POINT SOURCES/SINKS PRESENT IN THE FLOW MODEL =   240

 MAXIMUM STEPSIZE WHICH MEETS STABILITY CRITERION OF THE SINK & SOURCE TERM
 = 0.1000E+31(WHEN MIN. R.F.=1)  AT K=   0, I=   0, J=   0

 MAXIMUM STEPSIZE WHICH MEETS STABILITY CRITERION OF THE DISPERSION TERM
 = 0.5610E-02(WHEN MIN. R.F.=1)  AT K=   3, I=   2, J=  32
     1 CALLS TO GCG PACKAGE FOR TRANSPORT TIME STEP   9 IN FLOW TIME STEP  38 STRESS PERIOD   2
    14 TOTAL ITERATIONS
 
 SOLVING FOR HEAD 
 FLOW MODEL IS TRANSIENT
 FLOW MODEL CONTAINS CONSTANT-HEAD CELLS


 MAXIMUM STEPSIZE DURING WHICH ANY PARTICLE CANNOT MOVE MORE THAN ONE CELL
 = 0.1188    (WHEN MIN. R.F.=1)  AT K=   3, I=   2, J=  33

 MAXIMUM STEPSIZE WHICH MEETS STABILITY CRITERION OF THE ADVECTION TERM
 (FOR PURE FINITE-DIFFERENCE OPTION, MIXELM=0) 
 = 0.8144E-01(WHEN MIN. R.F.=1)  AT K=   3, I=   2, J=  32


 TOTAL NUMBER OF POINT SOURCES/SINKS PRESENT IN THE FLOW MODEL =   240

 MAXIMUM STEPSIZE WHICH MEETS STABILITY CRITERION OF THE SINK & SOURCE TERM
 = 0.1000E+31(WHEN MIN. R.F.=1)  AT K=   0, I=   0, J=   0

 MAXIMUM STEPSIZE WHICH MEETS STABILITY CRITERION OF THE DISPERSION TERM
 = 0.5610E-02(WHEN MIN. R.F.=1)  AT K=   3, I=   2, J=  32
     1 CALLS TO GCG PACKAGE FOR TRANSPORT TIME STEP  10 IN FLOW TIME STEP  38 STRESS PERIOD   2
    14 TOTAL ITERATIONS



 >>>>>>>>>>>>>>>>>>>>>>>>>>>>>>>>>>>>>>>>>>>>>>>>>>>>>>>FOR COMPONENT NO. 01<<<<<<<<<<<<<<<<<<<<<<<<<<<<<<<<<<<<<<<<<<<<<<<<<<<<<<<


                                            -------------------------------------------
                                                      TRANSPORT STEP NO.   10
                                            -------------------------------------------

 TOTAL ELAPSED TIME SINCE BEGINNING OF SIMULATION =   38.89130    D   
 .....................................................................

                     CUMULATIVE MASS BUDGETS AT END OF TRANSPORT STEP   10, TIME STEP   38, STRESS PERIOD    2
                     ------------------------------------------------------------------------------------------

                                                             IN                           OUT
                                                      ----------------             ----------------
                               CONSTANT CONCENTRATION:    7355.811                   -3241.995    
                                        CONSTANT HEAD:    0.000000                    0.000000    
                               MASS STOR (FLOW MODEL):   0.1235632E-01              -0.3224960E-02
                                MASS STORAGE (SOLUTE):   0.2124320                   -4114.040    
                            ---------------------------------------------------------------------------
                                              [TOTAL]:    7356.036     KG            -7356.039     KG  

                                                          NET (IN - OUT):  -0.2433461E-02
                                                   DISCREPANCY (PERCENT):  -0.3308113E-04
 
 SOLVING FOR HEAD 
 FLOW MODEL IS TRANSIENT
 FLOW MODEL CONTAINS CONSTANT-HEAD CELLS


 MAXIMUM STEPSIZE DURING WHICH ANY PARTICLE CANNOT MOVE MORE THAN ONE CELL
 = 0.1188    (WHEN MIN. R.F.=1)  AT K=   3, I=   2, J=  33

 MAXIMUM STEPSIZE WHICH MEETS STABILITY CRITERION OF THE ADVECTION TERM
 (FOR PURE FINITE-DIFFERENCE OPTION, MIXELM=0) 
 = 0.8144E-01(WHEN MIN. R.F.=1)  AT K=   3, I=   2, J=  32


 TOTAL NUMBER OF POINT SOURCES/SINKS PRESENT IN THE FLOW MODEL =   240

 MAXIMUM STEPSIZE WHICH MEETS STABILITY CRITERION OF THE SINK & SOURCE TERM
 = 0.1000E+31(WHEN MIN. R.F.=1)  AT K=   0, I=   0, J=   0

 MAXIMUM STEPSIZE WHICH MEETS STABILITY CRITERION OF THE DISPERSION TERM
 = 0.5610E-02(WHEN MIN. R.F.=1)  AT K=   3, I=   2, J=  32
     1 CALLS TO GCG PACKAGE FOR TRANSPORT TIME STEP  11 IN FLOW TIME STEP  38 STRESS PERIOD   2
    14 TOTAL ITERATIONS
 
 SOLVING FOR HEAD 
 FLOW MODEL IS TRANSIENT
 FLOW MODEL CONTAINS CONSTANT-HEAD CELLS


 MAXIMUM STEPSIZE DURING WHICH ANY PARTICLE CANNOT MOVE MORE THAN ONE CELL
 = 0.1188    (WHEN MIN. R.F.=1)  AT K=   3, I=   2, J=  33

 MAXIMUM STEPSIZE WHICH MEETS STABILITY CRITERION OF THE ADVECTION TERM
 (FOR PURE FINITE-DIFFERENCE OPTION, MIXELM=0) 
 = 0.8144E-01(WHEN MIN. R.F.=1)  AT K=   3, I=   2, J=  32


 TOTAL NUMBER OF POINT SOURCES/SINKS PRESENT IN THE FLOW MODEL =   240

 MAXIMUM STEPSIZE WHICH MEETS STABILITY CRITERION OF THE SINK & SOURCE TERM
 = 0.1000E+31(WHEN MIN. R.F.=1)  AT K=   0, I=   0, J=   0

 MAXIMUM STEPSIZE WHICH MEETS STABILITY CRITERION OF THE DISPERSION TERM
 = 0.5610E-02(WHEN MIN. R.F.=1)  AT K=   3, I=   2, J=  32
     1 CALLS TO GCG PACKAGE FOR TRANSPORT TIME STEP  12 IN FLOW TIME STEP  38 STRESS PERIOD   2
     7 TOTAL ITERATIONS
  MAXIMUM CONCENTRATION CHANGES FOR EACH ITERATION:
  MAX. CHANGE LAYER,ROW,COL MAX. CHANGE LAYER,ROW,COL MAX. CHANGE LAYER,ROW,COL MAX. CHANGE LAYER,ROW,COL MAX. CHANGE LAYER,ROW,COL
 ------------------------------------------------------------------------------------------------------------------------------------
   0.2213E-03 ( 13,  2, 58)  0.2478E-04 (  6,  2, 60)  0.3521E-05 (  5,  2, 57)  0.1153E-05 (  3,  2, 33)  0.5248E-06 (  4,  2, 33)
   0.2086E-06 (  3,  2, 33)  0.5616E-07 (  2,  2, 33)


                                          ================================================
                                                         FROM TIME =   39.000     TO    40.000    

 
 SOLVING FOR HEAD 
 FLOW MODEL IS TRANSIENT
 FLOW MODEL CONTAINS CONSTANT-HEAD CELLS


 MAXIMUM STEPSIZE DURING WHICH ANY PARTICLE CANNOT MOVE MORE THAN ONE CELL
 = 0.1188    (WHEN MIN. R.F.=1)  AT K=   3, I=   2, J=  33

 MAXIMUM STEPSIZE WHICH MEETS STABILITY CRITERION OF THE ADVECTION TERM
 (FOR PURE FINITE-DIFFERENCE OPTION, MIXELM=0) 
 = 0.8144E-01(WHEN MIN. R.F.=1)  AT K=   3, I=   2, J=  32


 TOTAL NUMBER OF POINT SOURCES/SINKS PRESENT IN THE FLOW MODEL =   240

 MAXIMUM STEPSIZE WHICH MEETS STABILITY CRITERION OF THE SINK & SOURCE TERM
 = 0.1000E+31(WHEN MIN. R.F.=1)  AT K=   0, I=   0, J=   0

 MAXIMUM STEPSIZE WHICH MEETS STABILITY CRITERION OF THE DISPERSION TERM
 = 0.5610E-02(WHEN MIN. R.F.=1)  AT K=   3, I=   2, J=  32


     1 CALLS TO GCG PACKAGE FOR TRANSPORT TIME STEP   1 IN FLOW TIME STEP  39 STRESS PERIOD   2
    14 TOTAL ITERATIONS

 NO OUTPUT CONTROL FOR STRESS PERIOD    2   TIME STEP  39
 
 SOLVING FOR HEAD 
 FLOW MODEL IS TRANSIENT
 FLOW MODEL CONTAINS CONSTANT-HEAD CELLS


 MAXIMUM STEPSIZE DURING WHICH ANY PARTICLE CANNOT MOVE MORE THAN ONE CELL
 = 0.1188    (WHEN MIN. R.F.=1)  AT K=   3, I=   2, J=  33

 MAXIMUM STEPSIZE WHICH MEETS STABILITY CRITERION OF THE ADVECTION TERM
 (FOR PURE FINITE-DIFFERENCE OPTION, MIXELM=0) 
 = 0.8144E-01(WHEN MIN. R.F.=1)  AT K=   3, I=   2, J=  32


 TOTAL NUMBER OF POINT SOURCES/SINKS PRESENT IN THE FLOW MODEL =   240

 MAXIMUM STEPSIZE WHICH MEETS STABILITY CRITERION OF THE SINK & SOURCE TERM
 = 0.1000E+31(WHEN MIN. R.F.=1)  AT K=   0, I=   0, J=   0

 MAXIMUM STEPSIZE WHICH MEETS STABILITY CRITERION OF THE DISPERSION TERM
 = 0.5610E-02(WHEN MIN. R.F.=1)  AT K=   3, I=   2, J=  32
     1 CALLS TO GCG PACKAGE FOR TRANSPORT TIME STEP   2 IN FLOW TIME STEP  39 STRESS PERIOD   2
    14 TOTAL ITERATIONS
 
 SOLVING FOR HEAD 
 FLOW MODEL IS TRANSIENT
 FLOW MODEL CONTAINS CONSTANT-HEAD CELLS


 MAXIMUM STEPSIZE DURING WHICH ANY PARTICLE CANNOT MOVE MORE THAN ONE CELL
 = 0.1188    (WHEN MIN. R.F.=1)  AT K=   3, I=   2, J=  33

 MAXIMUM STEPSIZE WHICH MEETS STABILITY CRITERION OF THE ADVECTION TERM
 (FOR PURE FINITE-DIFFERENCE OPTION, MIXELM=0) 
 = 0.8144E-01(WHEN MIN. R.F.=1)  AT K=   3, I=   2, J=  32


 TOTAL NUMBER OF POINT SOURCES/SINKS PRESENT IN THE FLOW MODEL =   240

 MAXIMUM STEPSIZE WHICH MEETS STABILITY CRITERION OF THE SINK & SOURCE TERM
 = 0.1000E+31(WHEN MIN. R.F.=1)  AT K=   0, I=   0, J=   0

 MAXIMUM STEPSIZE WHICH MEETS STABILITY CRITERION OF THE DISPERSION TERM
 = 0.5610E-02(WHEN MIN. R.F.=1)  AT K=   3, I=   2, J=  32
     1 CALLS TO GCG PACKAGE FOR TRANSPORT TIME STEP   3 IN FLOW TIME STEP  39 STRESS PERIOD   2
    14 TOTAL ITERATIONS
 
 SOLVING FOR HEAD 
 FLOW MODEL IS TRANSIENT
 FLOW MODEL CONTAINS CONSTANT-HEAD CELLS


 MAXIMUM STEPSIZE DURING WHICH ANY PARTICLE CANNOT MOVE MORE THAN ONE CELL
 = 0.1188    (WHEN MIN. R.F.=1)  AT K=   3, I=   2, J=  33

 MAXIMUM STEPSIZE WHICH MEETS STABILITY CRITERION OF THE ADVECTION TERM
 (FOR PURE FINITE-DIFFERENCE OPTION, MIXELM=0) 
 = 0.8144E-01(WHEN MIN. R.F.=1)  AT K=   3, I=   2, J=  32


 TOTAL NUMBER OF POINT SOURCES/SINKS PRESENT IN THE FLOW MODEL =   240

 MAXIMUM STEPSIZE WHICH MEETS STABILITY CRITERION OF THE SINK & SOURCE TERM
 = 0.1000E+31(WHEN MIN. R.F.=1)  AT K=   0, I=   0, J=   0

 MAXIMUM STEPSIZE WHICH MEETS STABILITY CRITERION OF THE DISPERSION TERM
 = 0.5610E-02(WHEN MIN. R.F.=1)  AT K=   3, I=   2, J=  32
     1 CALLS TO GCG PACKAGE FOR TRANSPORT TIME STEP   4 IN FLOW TIME STEP  39 STRESS PERIOD   2
    14 TOTAL ITERATIONS
 
 SOLVING FOR HEAD 
 FLOW MODEL IS TRANSIENT
 FLOW MODEL CONTAINS CONSTANT-HEAD CELLS


 MAXIMUM STEPSIZE DURING WHICH ANY PARTICLE CANNOT MOVE MORE THAN ONE CELL
 = 0.1188    (WHEN MIN. R.F.=1)  AT K=   3, I=   2, J=  33

 MAXIMUM STEPSIZE WHICH MEETS STABILITY CRITERION OF THE ADVECTION TERM
 (FOR PURE FINITE-DIFFERENCE OPTION, MIXELM=0) 
 = 0.8144E-01(WHEN MIN. R.F.=1)  AT K=   3, I=   2, J=  32


 TOTAL NUMBER OF POINT SOURCES/SINKS PRESENT IN THE FLOW MODEL =   240

 MAXIMUM STEPSIZE WHICH MEETS STABILITY CRITERION OF THE SINK & SOURCE TERM
 = 0.1000E+31(WHEN MIN. R.F.=1)  AT K=   0, I=   0, J=   0

 MAXIMUM STEPSIZE WHICH MEETS STABILITY CRITERION OF THE DISPERSION TERM
 = 0.5610E-02(WHEN MIN. R.F.=1)  AT K=   3, I=   2, J=  32
     1 CALLS TO GCG PACKAGE FOR TRANSPORT TIME STEP   5 IN FLOW TIME STEP  39 STRESS PERIOD   2
    14 TOTAL ITERATIONS
 
 SOLVING FOR HEAD 
 FLOW MODEL IS TRANSIENT
 FLOW MODEL CONTAINS CONSTANT-HEAD CELLS


 MAXIMUM STEPSIZE DURING WHICH ANY PARTICLE CANNOT MOVE MORE THAN ONE CELL
 = 0.1188    (WHEN MIN. R.F.=1)  AT K=   3, I=   2, J=  33

 MAXIMUM STEPSIZE WHICH MEETS STABILITY CRITERION OF THE ADVECTION TERM
 (FOR PURE FINITE-DIFFERENCE OPTION, MIXELM=0) 
 = 0.8144E-01(WHEN MIN. R.F.=1)  AT K=   3, I=   2, J=  32


 TOTAL NUMBER OF POINT SOURCES/SINKS PRESENT IN THE FLOW MODEL =   240

 MAXIMUM STEPSIZE WHICH MEETS STABILITY CRITERION OF THE SINK & SOURCE TERM
 = 0.1000E+31(WHEN MIN. R.F.=1)  AT K=   0, I=   0, J=   0

 MAXIMUM STEPSIZE WHICH MEETS STABILITY CRITERION OF THE DISPERSION TERM
 = 0.5610E-02(WHEN MIN. R.F.=1)  AT K=   3, I=   2, J=  32
     1 CALLS TO GCG PACKAGE FOR TRANSPORT TIME STEP   6 IN FLOW TIME STEP  39 STRESS PERIOD   2
    14 TOTAL ITERATIONS
 
 SOLVING FOR HEAD 
 FLOW MODEL IS TRANSIENT
 FLOW MODEL CONTAINS CONSTANT-HEAD CELLS


 MAXIMUM STEPSIZE DURING WHICH ANY PARTICLE CANNOT MOVE MORE THAN ONE CELL
 = 0.1188    (WHEN MIN. R.F.=1)  AT K=   3, I=   2, J=  33

 MAXIMUM STEPSIZE WHICH MEETS STABILITY CRITERION OF THE ADVECTION TERM
 (FOR PURE FINITE-DIFFERENCE OPTION, MIXELM=0) 
 = 0.8144E-01(WHEN MIN. R.F.=1)  AT K=   3, I=   2, J=  32


 TOTAL NUMBER OF POINT SOURCES/SINKS PRESENT IN THE FLOW MODEL =   240

 MAXIMUM STEPSIZE WHICH MEETS STABILITY CRITERION OF THE SINK & SOURCE TERM
 = 0.1000E+31(WHEN MIN. R.F.=1)  AT K=   0, I=   0, J=   0

 MAXIMUM STEPSIZE WHICH MEETS STABILITY CRITERION OF THE DISPERSION TERM
 = 0.5610E-02(WHEN MIN. R.F.=1)  AT K=   3, I=   2, J=  32
     1 CALLS TO GCG PACKAGE FOR TRANSPORT TIME STEP   7 IN FLOW TIME STEP  39 STRESS PERIOD   2
    14 TOTAL ITERATIONS
 
 SOLVING FOR HEAD 
 FLOW MODEL IS TRANSIENT
 FLOW MODEL CONTAINS CONSTANT-HEAD CELLS


 MAXIMUM STEPSIZE DURING WHICH ANY PARTICLE CANNOT MOVE MORE THAN ONE CELL
 = 0.1188    (WHEN MIN. R.F.=1)  AT K=   3, I=   2, J=  33

 MAXIMUM STEPSIZE WHICH MEETS STABILITY CRITERION OF THE ADVECTION TERM
 (FOR PURE FINITE-DIFFERENCE OPTION, MIXELM=0) 
 = 0.8144E-01(WHEN MIN. R.F.=1)  AT K=   3, I=   2, J=  32


 TOTAL NUMBER OF POINT SOURCES/SINKS PRESENT IN THE FLOW MODEL =   240

 MAXIMUM STEPSIZE WHICH MEETS STABILITY CRITERION OF THE SINK & SOURCE TERM
 = 0.1000E+31(WHEN MIN. R.F.=1)  AT K=   0, I=   0, J=   0

 MAXIMUM STEPSIZE WHICH MEETS STABILITY CRITERION OF THE DISPERSION TERM
 = 0.5610E-02(WHEN MIN. R.F.=1)  AT K=   3, I=   2, J=  32
     1 CALLS TO GCG PACKAGE FOR TRANSPORT TIME STEP   8 IN FLOW TIME STEP  39 STRESS PERIOD   2
    13 TOTAL ITERATIONS
 
 SOLVING FOR HEAD 
 FLOW MODEL IS TRANSIENT
 FLOW MODEL CONTAINS CONSTANT-HEAD CELLS


 MAXIMUM STEPSIZE DURING WHICH ANY PARTICLE CANNOT MOVE MORE THAN ONE CELL
 = 0.1188    (WHEN MIN. R.F.=1)  AT K=   3, I=   2, J=  33

 MAXIMUM STEPSIZE WHICH MEETS STABILITY CRITERION OF THE ADVECTION TERM
 (FOR PURE FINITE-DIFFERENCE OPTION, MIXELM=0) 
 = 0.8144E-01(WHEN MIN. R.F.=1)  AT K=   3, I=   2, J=  32


 TOTAL NUMBER OF POINT SOURCES/SINKS PRESENT IN THE FLOW MODEL =   240

 MAXIMUM STEPSIZE WHICH MEETS STABILITY CRITERION OF THE SINK & SOURCE TERM
 = 0.1000E+31(WHEN MIN. R.F.=1)  AT K=   0, I=   0, J=   0

 MAXIMUM STEPSIZE WHICH MEETS STABILITY CRITERION OF THE DISPERSION TERM
 = 0.5610E-02(WHEN MIN. R.F.=1)  AT K=   3, I=   2, J=  32
     1 CALLS TO GCG PACKAGE FOR TRANSPORT TIME STEP   9 IN FLOW TIME STEP  39 STRESS PERIOD   2
    13 TOTAL ITERATIONS
 
 SOLVING FOR HEAD 
 FLOW MODEL IS TRANSIENT
 FLOW MODEL CONTAINS CONSTANT-HEAD CELLS


 MAXIMUM STEPSIZE DURING WHICH ANY PARTICLE CANNOT MOVE MORE THAN ONE CELL
 = 0.1188    (WHEN MIN. R.F.=1)  AT K=   3, I=   2, J=  33

 MAXIMUM STEPSIZE WHICH MEETS STABILITY CRITERION OF THE ADVECTION TERM
 (FOR PURE FINITE-DIFFERENCE OPTION, MIXELM=0) 
 = 0.8144E-01(WHEN MIN. R.F.=1)  AT K=   3, I=   2, J=  32


 TOTAL NUMBER OF POINT SOURCES/SINKS PRESENT IN THE FLOW MODEL =   240

 MAXIMUM STEPSIZE WHICH MEETS STABILITY CRITERION OF THE SINK & SOURCE TERM
 = 0.1000E+31(WHEN MIN. R.F.=1)  AT K=   0, I=   0, J=   0

 MAXIMUM STEPSIZE WHICH MEETS STABILITY CRITERION OF THE DISPERSION TERM
 = 0.5610E-02(WHEN MIN. R.F.=1)  AT K=   3, I=   2, J=  32
     1 CALLS TO GCG PACKAGE FOR TRANSPORT TIME STEP  10 IN FLOW TIME STEP  39 STRESS PERIOD   2
    13 TOTAL ITERATIONS



 >>>>>>>>>>>>>>>>>>>>>>>>>>>>>>>>>>>>>>>>>>>>>>>>>>>>>>>FOR COMPONENT NO. 01<<<<<<<<<<<<<<<<<<<<<<<<<<<<<<<<<<<<<<<<<<<<<<<<<<<<<<<


                                            -------------------------------------------
                                                      TRANSPORT STEP NO.   10
                                            -------------------------------------------

 TOTAL ELAPSED TIME SINCE BEGINNING OF SIMULATION =   39.89126    D   
 .....................................................................

                     CUMULATIVE MASS BUDGETS AT END OF TRANSPORT STEP   10, TIME STEP   39, STRESS PERIOD    2
                     ------------------------------------------------------------------------------------------

                                                             IN                           OUT
                                                      ----------------             ----------------
                               CONSTANT CONCENTRATION:    7475.790                   -3333.707    
                                        CONSTANT HEAD:    0.000000                    0.000000    
                               MASS STOR (FLOW MODEL):   0.1237627E-01              -0.3233050E-02
                                MASS STORAGE (SOLUTE):   0.2921927                   -4142.387    
                            ---------------------------------------------------------------------------
                                              [TOTAL]:    7476.094     KG            -7476.097     KG  

                                                          NET (IN - OUT):  -0.2476220E-02
                                                   DISCREPANCY (PERCENT):  -0.3312183E-04
 
 SOLVING FOR HEAD 
 FLOW MODEL IS TRANSIENT
 FLOW MODEL CONTAINS CONSTANT-HEAD CELLS


 MAXIMUM STEPSIZE DURING WHICH ANY PARTICLE CANNOT MOVE MORE THAN ONE CELL
 = 0.1188    (WHEN MIN. R.F.=1)  AT K=   3, I=   2, J=  33

 MAXIMUM STEPSIZE WHICH MEETS STABILITY CRITERION OF THE ADVECTION TERM
 (FOR PURE FINITE-DIFFERENCE OPTION, MIXELM=0) 
 = 0.8144E-01(WHEN MIN. R.F.=1)  AT K=   3, I=   2, J=  32


 TOTAL NUMBER OF POINT SOURCES/SINKS PRESENT IN THE FLOW MODEL =   240

 MAXIMUM STEPSIZE WHICH MEETS STABILITY CRITERION OF THE SINK & SOURCE TERM
 = 0.1000E+31(WHEN MIN. R.F.=1)  AT K=   0, I=   0, J=   0

 MAXIMUM STEPSIZE WHICH MEETS STABILITY CRITERION OF THE DISPERSION TERM
 = 0.5609E-02(WHEN MIN. R.F.=1)  AT K=   3, I=   2, J=  32
     1 CALLS TO GCG PACKAGE FOR TRANSPORT TIME STEP  11 IN FLOW TIME STEP  39 STRESS PERIOD   2
    13 TOTAL ITERATIONS
 
 SOLVING FOR HEAD 
 FLOW MODEL IS TRANSIENT
 FLOW MODEL CONTAINS CONSTANT-HEAD CELLS


 MAXIMUM STEPSIZE DURING WHICH ANY PARTICLE CANNOT MOVE MORE THAN ONE CELL
 = 0.1188    (WHEN MIN. R.F.=1)  AT K=   3, I=   2, J=  33

 MAXIMUM STEPSIZE WHICH MEETS STABILITY CRITERION OF THE ADVECTION TERM
 (FOR PURE FINITE-DIFFERENCE OPTION, MIXELM=0) 
 = 0.8144E-01(WHEN MIN. R.F.=1)  AT K=   3, I=   2, J=  32


 TOTAL NUMBER OF POINT SOURCES/SINKS PRESENT IN THE FLOW MODEL =   240

 MAXIMUM STEPSIZE WHICH MEETS STABILITY CRITERION OF THE SINK & SOURCE TERM
 = 0.1000E+31(WHEN MIN. R.F.=1)  AT K=   0, I=   0, J=   0

 MAXIMUM STEPSIZE WHICH MEETS STABILITY CRITERION OF THE DISPERSION TERM
 = 0.5609E-02(WHEN MIN. R.F.=1)  AT K=   3, I=   2, J=  32
     1 CALLS TO GCG PACKAGE FOR TRANSPORT TIME STEP  12 IN FLOW TIME STEP  39 STRESS PERIOD   2
     7 TOTAL ITERATIONS
  MAXIMUM CONCENTRATION CHANGES FOR EACH ITERATION:
  MAX. CHANGE LAYER,ROW,COL MAX. CHANGE LAYER,ROW,COL MAX. CHANGE LAYER,ROW,COL MAX. CHANGE LAYER,ROW,COL MAX. CHANGE LAYER,ROW,COL
 ------------------------------------------------------------------------------------------------------------------------------------
   0.2158E-03 ( 13,  2, 58)  0.2373E-04 (  6,  2, 60)  0.3380E-05 (  5,  2, 57)  0.1104E-05 (  3,  2, 33)  0.5057E-06 (  4,  2, 33)
   0.2055E-06 (  3,  2, 33)  0.5646E-07 (  2,  2, 33)


                                          ================================================
                                                         FROM TIME =   40.000     TO    41.000    

 
 SOLVING FOR HEAD 
 FLOW MODEL IS TRANSIENT
 FLOW MODEL CONTAINS CONSTANT-HEAD CELLS


 MAXIMUM STEPSIZE DURING WHICH ANY PARTICLE CANNOT MOVE MORE THAN ONE CELL
 = 0.1188    (WHEN MIN. R.F.=1)  AT K=   3, I=   2, J=  33

 MAXIMUM STEPSIZE WHICH MEETS STABILITY CRITERION OF THE ADVECTION TERM
 (FOR PURE FINITE-DIFFERENCE OPTION, MIXELM=0) 
 = 0.8144E-01(WHEN MIN. R.F.=1)  AT K=   3, I=   2, J=  32


 TOTAL NUMBER OF POINT SOURCES/SINKS PRESENT IN THE FLOW MODEL =   240

 MAXIMUM STEPSIZE WHICH MEETS STABILITY CRITERION OF THE SINK & SOURCE TERM
 = 0.1000E+31(WHEN MIN. R.F.=1)  AT K=   0, I=   0, J=   0

 MAXIMUM STEPSIZE WHICH MEETS STABILITY CRITERION OF THE DISPERSION TERM
 = 0.5609E-02(WHEN MIN. R.F.=1)  AT K=   3, I=   2, J=  32


     1 CALLS TO GCG PACKAGE FOR TRANSPORT TIME STEP   1 IN FLOW TIME STEP  40 STRESS PERIOD   2
    13 TOTAL ITERATIONS

 NO OUTPUT CONTROL FOR STRESS PERIOD    2   TIME STEP  40
 
 SOLVING FOR HEAD 
 FLOW MODEL IS TRANSIENT
 FLOW MODEL CONTAINS CONSTANT-HEAD CELLS


 MAXIMUM STEPSIZE DURING WHICH ANY PARTICLE CANNOT MOVE MORE THAN ONE CELL
 = 0.1188    (WHEN MIN. R.F.=1)  AT K=   3, I=   2, J=  33

 MAXIMUM STEPSIZE WHICH MEETS STABILITY CRITERION OF THE ADVECTION TERM
 (FOR PURE FINITE-DIFFERENCE OPTION, MIXELM=0) 
 = 0.8144E-01(WHEN MIN. R.F.=1)  AT K=   3, I=   2, J=  32


 TOTAL NUMBER OF POINT SOURCES/SINKS PRESENT IN THE FLOW MODEL =   240

 MAXIMUM STEPSIZE WHICH MEETS STABILITY CRITERION OF THE SINK & SOURCE TERM
 = 0.1000E+31(WHEN MIN. R.F.=1)  AT K=   0, I=   0, J=   0

 MAXIMUM STEPSIZE WHICH MEETS STABILITY CRITERION OF THE DISPERSION TERM
 = 0.5609E-02(WHEN MIN. R.F.=1)  AT K=   3, I=   2, J=  32
     1 CALLS TO GCG PACKAGE FOR TRANSPORT TIME STEP   2 IN FLOW TIME STEP  40 STRESS PERIOD   2
    13 TOTAL ITERATIONS
 
 SOLVING FOR HEAD 
 FLOW MODEL IS TRANSIENT
 FLOW MODEL CONTAINS CONSTANT-HEAD CELLS


 MAXIMUM STEPSIZE DURING WHICH ANY PARTICLE CANNOT MOVE MORE THAN ONE CELL
 = 0.1188    (WHEN MIN. R.F.=1)  AT K=   3, I=   2, J=  33

 MAXIMUM STEPSIZE WHICH MEETS STABILITY CRITERION OF THE ADVECTION TERM
 (FOR PURE FINITE-DIFFERENCE OPTION, MIXELM=0) 
 = 0.8144E-01(WHEN MIN. R.F.=1)  AT K=   3, I=   2, J=  32


 TOTAL NUMBER OF POINT SOURCES/SINKS PRESENT IN THE FLOW MODEL =   240

 MAXIMUM STEPSIZE WHICH MEETS STABILITY CRITERION OF THE SINK & SOURCE TERM
 = 0.1000E+31(WHEN MIN. R.F.=1)  AT K=   0, I=   0, J=   0

 MAXIMUM STEPSIZE WHICH MEETS STABILITY CRITERION OF THE DISPERSION TERM
 = 0.5609E-02(WHEN MIN. R.F.=1)  AT K=   3, I=   2, J=  32
     1 CALLS TO GCG PACKAGE FOR TRANSPORT TIME STEP   3 IN FLOW TIME STEP  40 STRESS PERIOD   2
    13 TOTAL ITERATIONS
 
 SOLVING FOR HEAD 
 FLOW MODEL IS TRANSIENT
 FLOW MODEL CONTAINS CONSTANT-HEAD CELLS


 MAXIMUM STEPSIZE DURING WHICH ANY PARTICLE CANNOT MOVE MORE THAN ONE CELL
 = 0.1188    (WHEN MIN. R.F.=1)  AT K=   3, I=   2, J=  33

 MAXIMUM STEPSIZE WHICH MEETS STABILITY CRITERION OF THE ADVECTION TERM
 (FOR PURE FINITE-DIFFERENCE OPTION, MIXELM=0) 
 = 0.8144E-01(WHEN MIN. R.F.=1)  AT K=   3, I=   2, J=  32


 TOTAL NUMBER OF POINT SOURCES/SINKS PRESENT IN THE FLOW MODEL =   240

 MAXIMUM STEPSIZE WHICH MEETS STABILITY CRITERION OF THE SINK & SOURCE TERM
 = 0.1000E+31(WHEN MIN. R.F.=1)  AT K=   0, I=   0, J=   0

 MAXIMUM STEPSIZE WHICH MEETS STABILITY CRITERION OF THE DISPERSION TERM
 = 0.5609E-02(WHEN MIN. R.F.=1)  AT K=   3, I=   2, J=  32
     1 CALLS TO GCG PACKAGE FOR TRANSPORT TIME STEP   4 IN FLOW TIME STEP  40 STRESS PERIOD   2
    13 TOTAL ITERATIONS
 
 SOLVING FOR HEAD 
 FLOW MODEL IS TRANSIENT
 FLOW MODEL CONTAINS CONSTANT-HEAD CELLS


 MAXIMUM STEPSIZE DURING WHICH ANY PARTICLE CANNOT MOVE MORE THAN ONE CELL
 = 0.1188    (WHEN MIN. R.F.=1)  AT K=   3, I=   2, J=  33

 MAXIMUM STEPSIZE WHICH MEETS STABILITY CRITERION OF THE ADVECTION TERM
 (FOR PURE FINITE-DIFFERENCE OPTION, MIXELM=0) 
 = 0.8144E-01(WHEN MIN. R.F.=1)  AT K=   3, I=   2, J=  32


 TOTAL NUMBER OF POINT SOURCES/SINKS PRESENT IN THE FLOW MODEL =   240

 MAXIMUM STEPSIZE WHICH MEETS STABILITY CRITERION OF THE SINK & SOURCE TERM
 = 0.1000E+31(WHEN MIN. R.F.=1)  AT K=   0, I=   0, J=   0

 MAXIMUM STEPSIZE WHICH MEETS STABILITY CRITERION OF THE DISPERSION TERM
 = 0.5609E-02(WHEN MIN. R.F.=1)  AT K=   3, I=   2, J=  32
     1 CALLS TO GCG PACKAGE FOR TRANSPORT TIME STEP   5 IN FLOW TIME STEP  40 STRESS PERIOD   2
    13 TOTAL ITERATIONS
 
 SOLVING FOR HEAD 
 FLOW MODEL IS TRANSIENT
 FLOW MODEL CONTAINS CONSTANT-HEAD CELLS


 MAXIMUM STEPSIZE DURING WHICH ANY PARTICLE CANNOT MOVE MORE THAN ONE CELL
 = 0.1188    (WHEN MIN. R.F.=1)  AT K=   3, I=   2, J=  33

 MAXIMUM STEPSIZE WHICH MEETS STABILITY CRITERION OF THE ADVECTION TERM
 (FOR PURE FINITE-DIFFERENCE OPTION, MIXELM=0) 
 = 0.8144E-01(WHEN MIN. R.F.=1)  AT K=   3, I=   2, J=  32


 TOTAL NUMBER OF POINT SOURCES/SINKS PRESENT IN THE FLOW MODEL =   240

 MAXIMUM STEPSIZE WHICH MEETS STABILITY CRITERION OF THE SINK & SOURCE TERM
 = 0.1000E+31(WHEN MIN. R.F.=1)  AT K=   0, I=   0, J=   0

 MAXIMUM STEPSIZE WHICH MEETS STABILITY CRITERION OF THE DISPERSION TERM
 = 0.5609E-02(WHEN MIN. R.F.=1)  AT K=   3, I=   2, J=  32
     1 CALLS TO GCG PACKAGE FOR TRANSPORT TIME STEP   6 IN FLOW TIME STEP  40 STRESS PERIOD   2
    13 TOTAL ITERATIONS
 
 SOLVING FOR HEAD 
 FLOW MODEL IS TRANSIENT
 FLOW MODEL CONTAINS CONSTANT-HEAD CELLS


 MAXIMUM STEPSIZE DURING WHICH ANY PARTICLE CANNOT MOVE MORE THAN ONE CELL
 = 0.1188    (WHEN MIN. R.F.=1)  AT K=   3, I=   2, J=  33

 MAXIMUM STEPSIZE WHICH MEETS STABILITY CRITERION OF THE ADVECTION TERM
 (FOR PURE FINITE-DIFFERENCE OPTION, MIXELM=0) 
 = 0.8143E-01(WHEN MIN. R.F.=1)  AT K=   3, I=   2, J=  32


 TOTAL NUMBER OF POINT SOURCES/SINKS PRESENT IN THE FLOW MODEL =   240

 MAXIMUM STEPSIZE WHICH MEETS STABILITY CRITERION OF THE SINK & SOURCE TERM
 = 0.1000E+31(WHEN MIN. R.F.=1)  AT K=   0, I=   0, J=   0

 MAXIMUM STEPSIZE WHICH MEETS STABILITY CRITERION OF THE DISPERSION TERM
 = 0.5609E-02(WHEN MIN. R.F.=1)  AT K=   3, I=   2, J=  32
     1 CALLS TO GCG PACKAGE FOR TRANSPORT TIME STEP   7 IN FLOW TIME STEP  40 STRESS PERIOD   2
    13 TOTAL ITERATIONS
 
 SOLVING FOR HEAD 
 FLOW MODEL IS TRANSIENT
 FLOW MODEL CONTAINS CONSTANT-HEAD CELLS


 MAXIMUM STEPSIZE DURING WHICH ANY PARTICLE CANNOT MOVE MORE THAN ONE CELL
 = 0.1188    (WHEN MIN. R.F.=1)  AT K=   3, I=   2, J=  33

 MAXIMUM STEPSIZE WHICH MEETS STABILITY CRITERION OF THE ADVECTION TERM
 (FOR PURE FINITE-DIFFERENCE OPTION, MIXELM=0) 
 = 0.8143E-01(WHEN MIN. R.F.=1)  AT K=   3, I=   2, J=  32


 TOTAL NUMBER OF POINT SOURCES/SINKS PRESENT IN THE FLOW MODEL =   240

 MAXIMUM STEPSIZE WHICH MEETS STABILITY CRITERION OF THE SINK & SOURCE TERM
 = 0.1000E+31(WHEN MIN. R.F.=1)  AT K=   0, I=   0, J=   0

 MAXIMUM STEPSIZE WHICH MEETS STABILITY CRITERION OF THE DISPERSION TERM
 = 0.5609E-02(WHEN MIN. R.F.=1)  AT K=   3, I=   2, J=  32
     1 CALLS TO GCG PACKAGE FOR TRANSPORT TIME STEP   8 IN FLOW TIME STEP  40 STRESS PERIOD   2
    13 TOTAL ITERATIONS
 
 SOLVING FOR HEAD 
 FLOW MODEL IS TRANSIENT
 FLOW MODEL CONTAINS CONSTANT-HEAD CELLS


 MAXIMUM STEPSIZE DURING WHICH ANY PARTICLE CANNOT MOVE MORE THAN ONE CELL
 = 0.1188    (WHEN MIN. R.F.=1)  AT K=   3, I=   2, J=  33

 MAXIMUM STEPSIZE WHICH MEETS STABILITY CRITERION OF THE ADVECTION TERM
 (FOR PURE FINITE-DIFFERENCE OPTION, MIXELM=0) 
 = 0.8143E-01(WHEN MIN. R.F.=1)  AT K=   3, I=   2, J=  32


 TOTAL NUMBER OF POINT SOURCES/SINKS PRESENT IN THE FLOW MODEL =   240

 MAXIMUM STEPSIZE WHICH MEETS STABILITY CRITERION OF THE SINK & SOURCE TERM
 = 0.1000E+31(WHEN MIN. R.F.=1)  AT K=   0, I=   0, J=   0

 MAXIMUM STEPSIZE WHICH MEETS STABILITY CRITERION OF THE DISPERSION TERM
 = 0.5609E-02(WHEN MIN. R.F.=1)  AT K=   3, I=   2, J=  32
     1 CALLS TO GCG PACKAGE FOR TRANSPORT TIME STEP   9 IN FLOW TIME STEP  40 STRESS PERIOD   2
    13 TOTAL ITERATIONS
 
 SOLVING FOR HEAD 
 FLOW MODEL IS TRANSIENT
 FLOW MODEL CONTAINS CONSTANT-HEAD CELLS


 MAXIMUM STEPSIZE DURING WHICH ANY PARTICLE CANNOT MOVE MORE THAN ONE CELL
 = 0.1188    (WHEN MIN. R.F.=1)  AT K=   3, I=   2, J=  33

 MAXIMUM STEPSIZE WHICH MEETS STABILITY CRITERION OF THE ADVECTION TERM
 (FOR PURE FINITE-DIFFERENCE OPTION, MIXELM=0) 
 = 0.8143E-01(WHEN MIN. R.F.=1)  AT K=   3, I=   2, J=  32


 TOTAL NUMBER OF POINT SOURCES/SINKS PRESENT IN THE FLOW MODEL =   240

 MAXIMUM STEPSIZE WHICH MEETS STABILITY CRITERION OF THE SINK & SOURCE TERM
 = 0.1000E+31(WHEN MIN. R.F.=1)  AT K=   0, I=   0, J=   0

 MAXIMUM STEPSIZE WHICH MEETS STABILITY CRITERION OF THE DISPERSION TERM
 = 0.5609E-02(WHEN MIN. R.F.=1)  AT K=   3, I=   2, J=  32
     1 CALLS TO GCG PACKAGE FOR TRANSPORT TIME STEP  10 IN FLOW TIME STEP  40 STRESS PERIOD   2
    13 TOTAL ITERATIONS



 >>>>>>>>>>>>>>>>>>>>>>>>>>>>>>>>>>>>>>>>>>>>>>>>>>>>>>>FOR COMPONENT NO. 01<<<<<<<<<<<<<<<<<<<<<<<<<<<<<<<<<<<<<<<<<<<<<<<<<<<<<<<


                                            -------------------------------------------
                                                      TRANSPORT STEP NO.   10
                                            -------------------------------------------

 TOTAL ELAPSED TIME SINCE BEGINNING OF SIMULATION =   40.89122    D   
 .....................................................................

                     CUMULATIVE MASS BUDGETS AT END OF TRANSPORT STEP   10, TIME STEP   40, STRESS PERIOD    2
                     ------------------------------------------------------------------------------------------

                                                             IN                           OUT
                                                      ----------------             ----------------
                               CONSTANT CONCENTRATION:    7594.997                   -3425.482    
                                        CONSTANT HEAD:    0.000000                    0.000000    
                               MASS STOR (FLOW MODEL):   0.1239615E-01              -0.3240863E-02
                                MASS STORAGE (SOLUTE):   0.3576788                   -4169.883    
                            ---------------------------------------------------------------------------
                                              [TOTAL]:    7595.367     KG            -7595.369     KG  

                                                          NET (IN - OUT):  -0.2511772E-02
                                                   DISCREPANCY (PERCENT):  -0.3306979E-04
 
 SOLVING FOR HEAD 
 FLOW MODEL IS TRANSIENT
 FLOW MODEL CONTAINS CONSTANT-HEAD CELLS


 MAXIMUM STEPSIZE DURING WHICH ANY PARTICLE CANNOT MOVE MORE THAN ONE CELL
 = 0.1188    (WHEN MIN. R.F.=1)  AT K=   3, I=   2, J=  33

 MAXIMUM STEPSIZE WHICH MEETS STABILITY CRITERION OF THE ADVECTION TERM
 (FOR PURE FINITE-DIFFERENCE OPTION, MIXELM=0) 
 = 0.8143E-01(WHEN MIN. R.F.=1)  AT K=   3, I=   2, J=  32


 TOTAL NUMBER OF POINT SOURCES/SINKS PRESENT IN THE FLOW MODEL =   240

 MAXIMUM STEPSIZE WHICH MEETS STABILITY CRITERION OF THE SINK & SOURCE TERM
 = 0.1000E+31(WHEN MIN. R.F.=1)  AT K=   0, I=   0, J=   0

 MAXIMUM STEPSIZE WHICH MEETS STABILITY CRITERION OF THE DISPERSION TERM
 = 0.5609E-02(WHEN MIN. R.F.=1)  AT K=   3, I=   2, J=  32
     1 CALLS TO GCG PACKAGE FOR TRANSPORT TIME STEP  11 IN FLOW TIME STEP  40 STRESS PERIOD   2
    13 TOTAL ITERATIONS
 
 SOLVING FOR HEAD 
 FLOW MODEL IS TRANSIENT
 FLOW MODEL CONTAINS CONSTANT-HEAD CELLS


 MAXIMUM STEPSIZE DURING WHICH ANY PARTICLE CANNOT MOVE MORE THAN ONE CELL
 = 0.1188    (WHEN MIN. R.F.=1)  AT K=   3, I=   2, J=  33

 MAXIMUM STEPSIZE WHICH MEETS STABILITY CRITERION OF THE ADVECTION TERM
 (FOR PURE FINITE-DIFFERENCE OPTION, MIXELM=0) 
 = 0.8143E-01(WHEN MIN. R.F.=1)  AT K=   3, I=   2, J=  32


 TOTAL NUMBER OF POINT SOURCES/SINKS PRESENT IN THE FLOW MODEL =   240

 MAXIMUM STEPSIZE WHICH MEETS STABILITY CRITERION OF THE SINK & SOURCE TERM
 = 0.1000E+31(WHEN MIN. R.F.=1)  AT K=   0, I=   0, J=   0

 MAXIMUM STEPSIZE WHICH MEETS STABILITY CRITERION OF THE DISPERSION TERM
 = 0.5609E-02(WHEN MIN. R.F.=1)  AT K=   3, I=   2, J=  32
     1 CALLS TO GCG PACKAGE FOR TRANSPORT TIME STEP  12 IN FLOW TIME STEP  40 STRESS PERIOD   2
     7 TOTAL ITERATIONS
  MAXIMUM CONCENTRATION CHANGES FOR EACH ITERATION:
  MAX. CHANGE LAYER,ROW,COL MAX. CHANGE LAYER,ROW,COL MAX. CHANGE LAYER,ROW,COL MAX. CHANGE LAYER,ROW,COL MAX. CHANGE LAYER,ROW,COL
 ------------------------------------------------------------------------------------------------------------------------------------
   0.2103E-03 ( 13,  2, 58)  0.2273E-04 (  6,  2, 60)  0.3246E-05 (  5,  2, 57)  0.1049E-05 (  3,  2, 33)  0.4814E-06 (  4,  2, 33)
   0.1961E-06 (  3,  2, 33)  0.5399E-07 (  2,  2, 33)


                                          ================================================
                                                         FROM TIME =   41.000     TO    42.000    

 
 SOLVING FOR HEAD 
 FLOW MODEL IS TRANSIENT
 FLOW MODEL CONTAINS CONSTANT-HEAD CELLS


 MAXIMUM STEPSIZE DURING WHICH ANY PARTICLE CANNOT MOVE MORE THAN ONE CELL
 = 0.1188    (WHEN MIN. R.F.=1)  AT K=   3, I=   2, J=  33

 MAXIMUM STEPSIZE WHICH MEETS STABILITY CRITERION OF THE ADVECTION TERM
 (FOR PURE FINITE-DIFFERENCE OPTION, MIXELM=0) 
 = 0.8143E-01(WHEN MIN. R.F.=1)  AT K=   3, I=   2, J=  32


 TOTAL NUMBER OF POINT SOURCES/SINKS PRESENT IN THE FLOW MODEL =   240

 MAXIMUM STEPSIZE WHICH MEETS STABILITY CRITERION OF THE SINK & SOURCE TERM
 = 0.1000E+31(WHEN MIN. R.F.=1)  AT K=   0, I=   0, J=   0

 MAXIMUM STEPSIZE WHICH MEETS STABILITY CRITERION OF THE DISPERSION TERM
 = 0.5609E-02(WHEN MIN. R.F.=1)  AT K=   3, I=   2, J=  32


     1 CALLS TO GCG PACKAGE FOR TRANSPORT TIME STEP   1 IN FLOW TIME STEP  41 STRESS PERIOD   2
    13 TOTAL ITERATIONS

 NO OUTPUT CONTROL FOR STRESS PERIOD    2   TIME STEP  41
 
 SOLVING FOR HEAD 
 FLOW MODEL IS TRANSIENT
 FLOW MODEL CONTAINS CONSTANT-HEAD CELLS


 MAXIMUM STEPSIZE DURING WHICH ANY PARTICLE CANNOT MOVE MORE THAN ONE CELL
 = 0.1188    (WHEN MIN. R.F.=1)  AT K=   3, I=   2, J=  33

 MAXIMUM STEPSIZE WHICH MEETS STABILITY CRITERION OF THE ADVECTION TERM
 (FOR PURE FINITE-DIFFERENCE OPTION, MIXELM=0) 
 = 0.8143E-01(WHEN MIN. R.F.=1)  AT K=   3, I=   2, J=  32


 TOTAL NUMBER OF POINT SOURCES/SINKS PRESENT IN THE FLOW MODEL =   240

 MAXIMUM STEPSIZE WHICH MEETS STABILITY CRITERION OF THE SINK & SOURCE TERM
 = 0.1000E+31(WHEN MIN. R.F.=1)  AT K=   0, I=   0, J=   0

 MAXIMUM STEPSIZE WHICH MEETS STABILITY CRITERION OF THE DISPERSION TERM
 = 0.5609E-02(WHEN MIN. R.F.=1)  AT K=   3, I=   2, J=  32
     1 CALLS TO GCG PACKAGE FOR TRANSPORT TIME STEP   2 IN FLOW TIME STEP  41 STRESS PERIOD   2
    13 TOTAL ITERATIONS
 
 SOLVING FOR HEAD 
 FLOW MODEL IS TRANSIENT
 FLOW MODEL CONTAINS CONSTANT-HEAD CELLS


 MAXIMUM STEPSIZE DURING WHICH ANY PARTICLE CANNOT MOVE MORE THAN ONE CELL
 = 0.1188    (WHEN MIN. R.F.=1)  AT K=   3, I=   2, J=  33

 MAXIMUM STEPSIZE WHICH MEETS STABILITY CRITERION OF THE ADVECTION TERM
 (FOR PURE FINITE-DIFFERENCE OPTION, MIXELM=0) 
 = 0.8143E-01(WHEN MIN. R.F.=1)  AT K=   3, I=   2, J=  32


 TOTAL NUMBER OF POINT SOURCES/SINKS PRESENT IN THE FLOW MODEL =   240

 MAXIMUM STEPSIZE WHICH MEETS STABILITY CRITERION OF THE SINK & SOURCE TERM
 = 0.1000E+31(WHEN MIN. R.F.=1)  AT K=   0, I=   0, J=   0

 MAXIMUM STEPSIZE WHICH MEETS STABILITY CRITERION OF THE DISPERSION TERM
 = 0.5609E-02(WHEN MIN. R.F.=1)  AT K=   3, I=   2, J=  32
     1 CALLS TO GCG PACKAGE FOR TRANSPORT TIME STEP   3 IN FLOW TIME STEP  41 STRESS PERIOD   2
    13 TOTAL ITERATIONS
 
 SOLVING FOR HEAD 
 FLOW MODEL IS TRANSIENT
 FLOW MODEL CONTAINS CONSTANT-HEAD CELLS


 MAXIMUM STEPSIZE DURING WHICH ANY PARTICLE CANNOT MOVE MORE THAN ONE CELL
 = 0.1188    (WHEN MIN. R.F.=1)  AT K=   3, I=   2, J=  33

 MAXIMUM STEPSIZE WHICH MEETS STABILITY CRITERION OF THE ADVECTION TERM
 (FOR PURE FINITE-DIFFERENCE OPTION, MIXELM=0) 
 = 0.8143E-01(WHEN MIN. R.F.=1)  AT K=   3, I=   2, J=  32


 TOTAL NUMBER OF POINT SOURCES/SINKS PRESENT IN THE FLOW MODEL =   240

 MAXIMUM STEPSIZE WHICH MEETS STABILITY CRITERION OF THE SINK & SOURCE TERM
 = 0.1000E+31(WHEN MIN. R.F.=1)  AT K=   0, I=   0, J=   0

 MAXIMUM STEPSIZE WHICH MEETS STABILITY CRITERION OF THE DISPERSION TERM
 = 0.5609E-02(WHEN MIN. R.F.=1)  AT K=   3, I=   2, J=  32
     1 CALLS TO GCG PACKAGE FOR TRANSPORT TIME STEP   4 IN FLOW TIME STEP  41 STRESS PERIOD   2
    13 TOTAL ITERATIONS
 
 SOLVING FOR HEAD 
 FLOW MODEL IS TRANSIENT
 FLOW MODEL CONTAINS CONSTANT-HEAD CELLS


 MAXIMUM STEPSIZE DURING WHICH ANY PARTICLE CANNOT MOVE MORE THAN ONE CELL
 = 0.1188    (WHEN MIN. R.F.=1)  AT K=   3, I=   2, J=  33

 MAXIMUM STEPSIZE WHICH MEETS STABILITY CRITERION OF THE ADVECTION TERM
 (FOR PURE FINITE-DIFFERENCE OPTION, MIXELM=0) 
 = 0.8143E-01(WHEN MIN. R.F.=1)  AT K=   3, I=   2, J=  32


 TOTAL NUMBER OF POINT SOURCES/SINKS PRESENT IN THE FLOW MODEL =   240

 MAXIMUM STEPSIZE WHICH MEETS STABILITY CRITERION OF THE SINK & SOURCE TERM
 = 0.1000E+31(WHEN MIN. R.F.=1)  AT K=   0, I=   0, J=   0

 MAXIMUM STEPSIZE WHICH MEETS STABILITY CRITERION OF THE DISPERSION TERM
 = 0.5609E-02(WHEN MIN. R.F.=1)  AT K=   3, I=   2, J=  32
     1 CALLS TO GCG PACKAGE FOR TRANSPORT TIME STEP   5 IN FLOW TIME STEP  41 STRESS PERIOD   2
    13 TOTAL ITERATIONS
 
 SOLVING FOR HEAD 
 FLOW MODEL IS TRANSIENT
 FLOW MODEL CONTAINS CONSTANT-HEAD CELLS


 MAXIMUM STEPSIZE DURING WHICH ANY PARTICLE CANNOT MOVE MORE THAN ONE CELL
 = 0.1188    (WHEN MIN. R.F.=1)  AT K=   3, I=   2, J=  33

 MAXIMUM STEPSIZE WHICH MEETS STABILITY CRITERION OF THE ADVECTION TERM
 (FOR PURE FINITE-DIFFERENCE OPTION, MIXELM=0) 
 = 0.8143E-01(WHEN MIN. R.F.=1)  AT K=   3, I=   2, J=  32


 TOTAL NUMBER OF POINT SOURCES/SINKS PRESENT IN THE FLOW MODEL =   240

 MAXIMUM STEPSIZE WHICH MEETS STABILITY CRITERION OF THE SINK & SOURCE TERM
 = 0.1000E+31(WHEN MIN. R.F.=1)  AT K=   0, I=   0, J=   0

 MAXIMUM STEPSIZE WHICH MEETS STABILITY CRITERION OF THE DISPERSION TERM
 = 0.5609E-02(WHEN MIN. R.F.=1)  AT K=   3, I=   2, J=  32
     1 CALLS TO GCG PACKAGE FOR TRANSPORT TIME STEP   6 IN FLOW TIME STEP  41 STRESS PERIOD   2
    13 TOTAL ITERATIONS
 
 SOLVING FOR HEAD 
 FLOW MODEL IS TRANSIENT
 FLOW MODEL CONTAINS CONSTANT-HEAD CELLS


 MAXIMUM STEPSIZE DURING WHICH ANY PARTICLE CANNOT MOVE MORE THAN ONE CELL
 = 0.1188    (WHEN MIN. R.F.=1)  AT K=   3, I=   2, J=  33

 MAXIMUM STEPSIZE WHICH MEETS STABILITY CRITERION OF THE ADVECTION TERM
 (FOR PURE FINITE-DIFFERENCE OPTION, MIXELM=0) 
 = 0.8143E-01(WHEN MIN. R.F.=1)  AT K=   3, I=   2, J=  32


 TOTAL NUMBER OF POINT SOURCES/SINKS PRESENT IN THE FLOW MODEL =   240

 MAXIMUM STEPSIZE WHICH MEETS STABILITY CRITERION OF THE SINK & SOURCE TERM
 = 0.1000E+31(WHEN MIN. R.F.=1)  AT K=   0, I=   0, J=   0

 MAXIMUM STEPSIZE WHICH MEETS STABILITY CRITERION OF THE DISPERSION TERM
 = 0.5609E-02(WHEN MIN. R.F.=1)  AT K=   3, I=   2, J=  32
     1 CALLS TO GCG PACKAGE FOR TRANSPORT TIME STEP   7 IN FLOW TIME STEP  41 STRESS PERIOD   2
    13 TOTAL ITERATIONS
 
 SOLVING FOR HEAD 
 FLOW MODEL IS TRANSIENT
 FLOW MODEL CONTAINS CONSTANT-HEAD CELLS


 MAXIMUM STEPSIZE DURING WHICH ANY PARTICLE CANNOT MOVE MORE THAN ONE CELL
 = 0.1188    (WHEN MIN. R.F.=1)  AT K=   3, I=   2, J=  33

 MAXIMUM STEPSIZE WHICH MEETS STABILITY CRITERION OF THE ADVECTION TERM
 (FOR PURE FINITE-DIFFERENCE OPTION, MIXELM=0) 
 = 0.8143E-01(WHEN MIN. R.F.=1)  AT K=   3, I=   2, J=  32


 TOTAL NUMBER OF POINT SOURCES/SINKS PRESENT IN THE FLOW MODEL =   240

 MAXIMUM STEPSIZE WHICH MEETS STABILITY CRITERION OF THE SINK & SOURCE TERM
 = 0.1000E+31(WHEN MIN. R.F.=1)  AT K=   0, I=   0, J=   0

 MAXIMUM STEPSIZE WHICH MEETS STABILITY CRITERION OF THE DISPERSION TERM
 = 0.5609E-02(WHEN MIN. R.F.=1)  AT K=   3, I=   2, J=  32
     1 CALLS TO GCG PACKAGE FOR TRANSPORT TIME STEP   8 IN FLOW TIME STEP  41 STRESS PERIOD   2
    13 TOTAL ITERATIONS
 
 SOLVING FOR HEAD 
 FLOW MODEL IS TRANSIENT
 FLOW MODEL CONTAINS CONSTANT-HEAD CELLS


 MAXIMUM STEPSIZE DURING WHICH ANY PARTICLE CANNOT MOVE MORE THAN ONE CELL
 = 0.1188    (WHEN MIN. R.F.=1)  AT K=   3, I=   2, J=  33

 MAXIMUM STEPSIZE WHICH MEETS STABILITY CRITERION OF THE ADVECTION TERM
 (FOR PURE FINITE-DIFFERENCE OPTION, MIXELM=0) 
 = 0.8143E-01(WHEN MIN. R.F.=1)  AT K=   3, I=   2, J=  32


 TOTAL NUMBER OF POINT SOURCES/SINKS PRESENT IN THE FLOW MODEL =   240

 MAXIMUM STEPSIZE WHICH MEETS STABILITY CRITERION OF THE SINK & SOURCE TERM
 = 0.1000E+31(WHEN MIN. R.F.=1)  AT K=   0, I=   0, J=   0

 MAXIMUM STEPSIZE WHICH MEETS STABILITY CRITERION OF THE DISPERSION TERM
 = 0.5609E-02(WHEN MIN. R.F.=1)  AT K=   3, I=   2, J=  32
     1 CALLS TO GCG PACKAGE FOR TRANSPORT TIME STEP   9 IN FLOW TIME STEP  41 STRESS PERIOD   2
    13 TOTAL ITERATIONS
 
 SOLVING FOR HEAD 
 FLOW MODEL IS TRANSIENT
 FLOW MODEL CONTAINS CONSTANT-HEAD CELLS


 MAXIMUM STEPSIZE DURING WHICH ANY PARTICLE CANNOT MOVE MORE THAN ONE CELL
 = 0.1188    (WHEN MIN. R.F.=1)  AT K=   3, I=   2, J=  33

 MAXIMUM STEPSIZE WHICH MEETS STABILITY CRITERION OF THE ADVECTION TERM
 (FOR PURE FINITE-DIFFERENCE OPTION, MIXELM=0) 
 = 0.8143E-01(WHEN MIN. R.F.=1)  AT K=   3, I=   2, J=  32


 TOTAL NUMBER OF POINT SOURCES/SINKS PRESENT IN THE FLOW MODEL =   240

 MAXIMUM STEPSIZE WHICH MEETS STABILITY CRITERION OF THE SINK & SOURCE TERM
 = 0.1000E+31(WHEN MIN. R.F.=1)  AT K=   0, I=   0, J=   0

 MAXIMUM STEPSIZE WHICH MEETS STABILITY CRITERION OF THE DISPERSION TERM
 = 0.5609E-02(WHEN MIN. R.F.=1)  AT K=   3, I=   2, J=  32
     1 CALLS TO GCG PACKAGE FOR TRANSPORT TIME STEP  10 IN FLOW TIME STEP  41 STRESS PERIOD   2
    13 TOTAL ITERATIONS



 >>>>>>>>>>>>>>>>>>>>>>>>>>>>>>>>>>>>>>>>>>>>>>>>>>>>>>>FOR COMPONENT NO. 01<<<<<<<<<<<<<<<<<<<<<<<<<<<<<<<<<<<<<<<<<<<<<<<<<<<<<<<


                                            -------------------------------------------
                                                      TRANSPORT STEP NO.   10
                                            -------------------------------------------

 TOTAL ELAPSED TIME SINCE BEGINNING OF SIMULATION =   41.89118    D   
 .....................................................................

                     CUMULATIVE MASS BUDGETS AT END OF TRANSPORT STEP   10, TIME STEP   41, STRESS PERIOD    2
                     ------------------------------------------------------------------------------------------

                                                             IN                           OUT
                                                      ----------------             ----------------
                               CONSTANT CONCENTRATION:    7713.472                   -3517.320    
                                        CONSTANT HEAD:    0.000000                    0.000000    
                               MASS STOR (FLOW MODEL):   0.1241596E-01              -0.3248419E-02
                                MASS STORAGE (SOLUTE):   0.4131236                   -4196.577    
                            ---------------------------------------------------------------------------
                                              [TOTAL]:    7713.898     KG            -7713.900     KG  

                                                          NET (IN - OUT):  -0.2545001E-02
                                                   DISCREPANCY (PERCENT):  -0.3299240E-04
 
 SOLVING FOR HEAD 
 FLOW MODEL IS TRANSIENT
 FLOW MODEL CONTAINS CONSTANT-HEAD CELLS


 MAXIMUM STEPSIZE DURING WHICH ANY PARTICLE CANNOT MOVE MORE THAN ONE CELL
 = 0.1188    (WHEN MIN. R.F.=1)  AT K=   3, I=   2, J=  33

 MAXIMUM STEPSIZE WHICH MEETS STABILITY CRITERION OF THE ADVECTION TERM
 (FOR PURE FINITE-DIFFERENCE OPTION, MIXELM=0) 
 = 0.8143E-01(WHEN MIN. R.F.=1)  AT K=   3, I=   2, J=  32


 TOTAL NUMBER OF POINT SOURCES/SINKS PRESENT IN THE FLOW MODEL =   240

 MAXIMUM STEPSIZE WHICH MEETS STABILITY CRITERION OF THE SINK & SOURCE TERM
 = 0.1000E+31(WHEN MIN. R.F.=1)  AT K=   0, I=   0, J=   0

 MAXIMUM STEPSIZE WHICH MEETS STABILITY CRITERION OF THE DISPERSION TERM
 = 0.5609E-02(WHEN MIN. R.F.=1)  AT K=   3, I=   2, J=  32
     1 CALLS TO GCG PACKAGE FOR TRANSPORT TIME STEP  11 IN FLOW TIME STEP  41 STRESS PERIOD   2
    13 TOTAL ITERATIONS
 
 SOLVING FOR HEAD 
 FLOW MODEL IS TRANSIENT
 FLOW MODEL CONTAINS CONSTANT-HEAD CELLS


 MAXIMUM STEPSIZE DURING WHICH ANY PARTICLE CANNOT MOVE MORE THAN ONE CELL
 = 0.1188    (WHEN MIN. R.F.=1)  AT K=   3, I=   2, J=  33

 MAXIMUM STEPSIZE WHICH MEETS STABILITY CRITERION OF THE ADVECTION TERM
 (FOR PURE FINITE-DIFFERENCE OPTION, MIXELM=0) 
 = 0.8143E-01(WHEN MIN. R.F.=1)  AT K=   3, I=   2, J=  32


 TOTAL NUMBER OF POINT SOURCES/SINKS PRESENT IN THE FLOW MODEL =   240

 MAXIMUM STEPSIZE WHICH MEETS STABILITY CRITERION OF THE SINK & SOURCE TERM
 = 0.1000E+31(WHEN MIN. R.F.=1)  AT K=   0, I=   0, J=   0

 MAXIMUM STEPSIZE WHICH MEETS STABILITY CRITERION OF THE DISPERSION TERM
 = 0.5609E-02(WHEN MIN. R.F.=1)  AT K=   3, I=   2, J=  32
     1 CALLS TO GCG PACKAGE FOR TRANSPORT TIME STEP  12 IN FLOW TIME STEP  41 STRESS PERIOD   2
     7 TOTAL ITERATIONS
  MAXIMUM CONCENTRATION CHANGES FOR EACH ITERATION:
  MAX. CHANGE LAYER,ROW,COL MAX. CHANGE LAYER,ROW,COL MAX. CHANGE LAYER,ROW,COL MAX. CHANGE LAYER,ROW,COL MAX. CHANGE LAYER,ROW,COL
 ------------------------------------------------------------------------------------------------------------------------------------
   0.2057E-03 ( 13,  2, 59)  0.2179E-04 (  6,  2, 60)  0.3120E-05 (  5,  2, 57)  0.9978E-06 (  3,  2, 33)  0.4586E-06 (  4,  2, 33)
   0.1872E-06 (  3,  2, 33)  0.5165E-07 (  2,  2, 33)


                                          ================================================
                                                         FROM TIME =   42.000     TO    43.000    

 
 SOLVING FOR HEAD 
 FLOW MODEL IS TRANSIENT
 FLOW MODEL CONTAINS CONSTANT-HEAD CELLS


 MAXIMUM STEPSIZE DURING WHICH ANY PARTICLE CANNOT MOVE MORE THAN ONE CELL
 = 0.1188    (WHEN MIN. R.F.=1)  AT K=   3, I=   2, J=  33

 MAXIMUM STEPSIZE WHICH MEETS STABILITY CRITERION OF THE ADVECTION TERM
 (FOR PURE FINITE-DIFFERENCE OPTION, MIXELM=0) 
 = 0.8143E-01(WHEN MIN. R.F.=1)  AT K=   3, I=   2, J=  32


 TOTAL NUMBER OF POINT SOURCES/SINKS PRESENT IN THE FLOW MODEL =   240

 MAXIMUM STEPSIZE WHICH MEETS STABILITY CRITERION OF THE SINK & SOURCE TERM
 = 0.1000E+31(WHEN MIN. R.F.=1)  AT K=   0, I=   0, J=   0

 MAXIMUM STEPSIZE WHICH MEETS STABILITY CRITERION OF THE DISPERSION TERM
 = 0.5609E-02(WHEN MIN. R.F.=1)  AT K=   3, I=   2, J=  32


     1 CALLS TO GCG PACKAGE FOR TRANSPORT TIME STEP   1 IN FLOW TIME STEP  42 STRESS PERIOD   2
    13 TOTAL ITERATIONS

 NO OUTPUT CONTROL FOR STRESS PERIOD    2   TIME STEP  42
 
 SOLVING FOR HEAD 
 FLOW MODEL IS TRANSIENT
 FLOW MODEL CONTAINS CONSTANT-HEAD CELLS


 MAXIMUM STEPSIZE DURING WHICH ANY PARTICLE CANNOT MOVE MORE THAN ONE CELL
 = 0.1188    (WHEN MIN. R.F.=1)  AT K=   3, I=   2, J=  33

 MAXIMUM STEPSIZE WHICH MEETS STABILITY CRITERION OF THE ADVECTION TERM
 (FOR PURE FINITE-DIFFERENCE OPTION, MIXELM=0) 
 = 0.8143E-01(WHEN MIN. R.F.=1)  AT K=   3, I=   2, J=  32


 TOTAL NUMBER OF POINT SOURCES/SINKS PRESENT IN THE FLOW MODEL =   240

 MAXIMUM STEPSIZE WHICH MEETS STABILITY CRITERION OF THE SINK & SOURCE TERM
 = 0.1000E+31(WHEN MIN. R.F.=1)  AT K=   0, I=   0, J=   0

 MAXIMUM STEPSIZE WHICH MEETS STABILITY CRITERION OF THE DISPERSION TERM
 = 0.5609E-02(WHEN MIN. R.F.=1)  AT K=   3, I=   2, J=  32
     1 CALLS TO GCG PACKAGE FOR TRANSPORT TIME STEP   2 IN FLOW TIME STEP  42 STRESS PERIOD   2
    13 TOTAL ITERATIONS
 
 SOLVING FOR HEAD 
 FLOW MODEL IS TRANSIENT
 FLOW MODEL CONTAINS CONSTANT-HEAD CELLS


 MAXIMUM STEPSIZE DURING WHICH ANY PARTICLE CANNOT MOVE MORE THAN ONE CELL
 = 0.1188    (WHEN MIN. R.F.=1)  AT K=   3, I=   2, J=  33

 MAXIMUM STEPSIZE WHICH MEETS STABILITY CRITERION OF THE ADVECTION TERM
 (FOR PURE FINITE-DIFFERENCE OPTION, MIXELM=0) 
 = 0.8143E-01(WHEN MIN. R.F.=1)  AT K=   3, I=   2, J=  32


 TOTAL NUMBER OF POINT SOURCES/SINKS PRESENT IN THE FLOW MODEL =   240

 MAXIMUM STEPSIZE WHICH MEETS STABILITY CRITERION OF THE SINK & SOURCE TERM
 = 0.1000E+31(WHEN MIN. R.F.=1)  AT K=   0, I=   0, J=   0

 MAXIMUM STEPSIZE WHICH MEETS STABILITY CRITERION OF THE DISPERSION TERM
 = 0.5609E-02(WHEN MIN. R.F.=1)  AT K=   3, I=   2, J=  32
     1 CALLS TO GCG PACKAGE FOR TRANSPORT TIME STEP   3 IN FLOW TIME STEP  42 STRESS PERIOD   2
    13 TOTAL ITERATIONS
 
 SOLVING FOR HEAD 
 FLOW MODEL IS TRANSIENT
 FLOW MODEL CONTAINS CONSTANT-HEAD CELLS


 MAXIMUM STEPSIZE DURING WHICH ANY PARTICLE CANNOT MOVE MORE THAN ONE CELL
 = 0.1188    (WHEN MIN. R.F.=1)  AT K=   3, I=   2, J=  33

 MAXIMUM STEPSIZE WHICH MEETS STABILITY CRITERION OF THE ADVECTION TERM
 (FOR PURE FINITE-DIFFERENCE OPTION, MIXELM=0) 
 = 0.8143E-01(WHEN MIN. R.F.=1)  AT K=   3, I=   2, J=  32


 TOTAL NUMBER OF POINT SOURCES/SINKS PRESENT IN THE FLOW MODEL =   240

 MAXIMUM STEPSIZE WHICH MEETS STABILITY CRITERION OF THE SINK & SOURCE TERM
 = 0.1000E+31(WHEN MIN. R.F.=1)  AT K=   0, I=   0, J=   0

 MAXIMUM STEPSIZE WHICH MEETS STABILITY CRITERION OF THE DISPERSION TERM
 = 0.5609E-02(WHEN MIN. R.F.=1)  AT K=   3, I=   2, J=  32
     1 CALLS TO GCG PACKAGE FOR TRANSPORT TIME STEP   4 IN FLOW TIME STEP  42 STRESS PERIOD   2
    13 TOTAL ITERATIONS
 
 SOLVING FOR HEAD 
 FLOW MODEL IS TRANSIENT
 FLOW MODEL CONTAINS CONSTANT-HEAD CELLS


 MAXIMUM STEPSIZE DURING WHICH ANY PARTICLE CANNOT MOVE MORE THAN ONE CELL
 = 0.1188    (WHEN MIN. R.F.=1)  AT K=   3, I=   2, J=  33

 MAXIMUM STEPSIZE WHICH MEETS STABILITY CRITERION OF THE ADVECTION TERM
 (FOR PURE FINITE-DIFFERENCE OPTION, MIXELM=0) 
 = 0.8143E-01(WHEN MIN. R.F.=1)  AT K=   3, I=   2, J=  32


 TOTAL NUMBER OF POINT SOURCES/SINKS PRESENT IN THE FLOW MODEL =   240

 MAXIMUM STEPSIZE WHICH MEETS STABILITY CRITERION OF THE SINK & SOURCE TERM
 = 0.1000E+31(WHEN MIN. R.F.=1)  AT K=   0, I=   0, J=   0

 MAXIMUM STEPSIZE WHICH MEETS STABILITY CRITERION OF THE DISPERSION TERM
 = 0.5609E-02(WHEN MIN. R.F.=1)  AT K=   3, I=   2, J=  32
     1 CALLS TO GCG PACKAGE FOR TRANSPORT TIME STEP   5 IN FLOW TIME STEP  42 STRESS PERIOD   2
    13 TOTAL ITERATIONS
 
 SOLVING FOR HEAD 
 FLOW MODEL IS TRANSIENT
 FLOW MODEL CONTAINS CONSTANT-HEAD CELLS


 MAXIMUM STEPSIZE DURING WHICH ANY PARTICLE CANNOT MOVE MORE THAN ONE CELL
 = 0.1188    (WHEN MIN. R.F.=1)  AT K=   3, I=   2, J=  33

 MAXIMUM STEPSIZE WHICH MEETS STABILITY CRITERION OF THE ADVECTION TERM
 (FOR PURE FINITE-DIFFERENCE OPTION, MIXELM=0) 
 = 0.8143E-01(WHEN MIN. R.F.=1)  AT K=   3, I=   2, J=  32


 TOTAL NUMBER OF POINT SOURCES/SINKS PRESENT IN THE FLOW MODEL =   240

 MAXIMUM STEPSIZE WHICH MEETS STABILITY CRITERION OF THE SINK & SOURCE TERM
 = 0.1000E+31(WHEN MIN. R.F.=1)  AT K=   0, I=   0, J=   0

 MAXIMUM STEPSIZE WHICH MEETS STABILITY CRITERION OF THE DISPERSION TERM
 = 0.5609E-02(WHEN MIN. R.F.=1)  AT K=   3, I=   2, J=  32
     1 CALLS TO GCG PACKAGE FOR TRANSPORT TIME STEP   6 IN FLOW TIME STEP  42 STRESS PERIOD   2
    13 TOTAL ITERATIONS
 
 SOLVING FOR HEAD 
 FLOW MODEL IS TRANSIENT
 FLOW MODEL CONTAINS CONSTANT-HEAD CELLS


 MAXIMUM STEPSIZE DURING WHICH ANY PARTICLE CANNOT MOVE MORE THAN ONE CELL
 = 0.1188    (WHEN MIN. R.F.=1)  AT K=   3, I=   2, J=  33

 MAXIMUM STEPSIZE WHICH MEETS STABILITY CRITERION OF THE ADVECTION TERM
 (FOR PURE FINITE-DIFFERENCE OPTION, MIXELM=0) 
 = 0.8143E-01(WHEN MIN. R.F.=1)  AT K=   3, I=   2, J=  32


 TOTAL NUMBER OF POINT SOURCES/SINKS PRESENT IN THE FLOW MODEL =   240

 MAXIMUM STEPSIZE WHICH MEETS STABILITY CRITERION OF THE SINK & SOURCE TERM
 = 0.1000E+31(WHEN MIN. R.F.=1)  AT K=   0, I=   0, J=   0

 MAXIMUM STEPSIZE WHICH MEETS STABILITY CRITERION OF THE DISPERSION TERM
 = 0.5609E-02(WHEN MIN. R.F.=1)  AT K=   3, I=   2, J=  32
     1 CALLS TO GCG PACKAGE FOR TRANSPORT TIME STEP   7 IN FLOW TIME STEP  42 STRESS PERIOD   2
    13 TOTAL ITERATIONS
 
 SOLVING FOR HEAD 
 FLOW MODEL IS TRANSIENT
 FLOW MODEL CONTAINS CONSTANT-HEAD CELLS


 MAXIMUM STEPSIZE DURING WHICH ANY PARTICLE CANNOT MOVE MORE THAN ONE CELL
 = 0.1188    (WHEN MIN. R.F.=1)  AT K=   3, I=   2, J=  33

 MAXIMUM STEPSIZE WHICH MEETS STABILITY CRITERION OF THE ADVECTION TERM
 (FOR PURE FINITE-DIFFERENCE OPTION, MIXELM=0) 
 = 0.8143E-01(WHEN MIN. R.F.=1)  AT K=   3, I=   2, J=  32


 TOTAL NUMBER OF POINT SOURCES/SINKS PRESENT IN THE FLOW MODEL =   240

 MAXIMUM STEPSIZE WHICH MEETS STABILITY CRITERION OF THE SINK & SOURCE TERM
 = 0.1000E+31(WHEN MIN. R.F.=1)  AT K=   0, I=   0, J=   0

 MAXIMUM STEPSIZE WHICH MEETS STABILITY CRITERION OF THE DISPERSION TERM
 = 0.5609E-02(WHEN MIN. R.F.=1)  AT K=   3, I=   2, J=  32
     1 CALLS TO GCG PACKAGE FOR TRANSPORT TIME STEP   8 IN FLOW TIME STEP  42 STRESS PERIOD   2
    13 TOTAL ITERATIONS
 
 SOLVING FOR HEAD 
 FLOW MODEL IS TRANSIENT
 FLOW MODEL CONTAINS CONSTANT-HEAD CELLS


 MAXIMUM STEPSIZE DURING WHICH ANY PARTICLE CANNOT MOVE MORE THAN ONE CELL
 = 0.1188    (WHEN MIN. R.F.=1)  AT K=   3, I=   2, J=  33

 MAXIMUM STEPSIZE WHICH MEETS STABILITY CRITERION OF THE ADVECTION TERM
 (FOR PURE FINITE-DIFFERENCE OPTION, MIXELM=0) 
 = 0.8143E-01(WHEN MIN. R.F.=1)  AT K=   3, I=   2, J=  32


 TOTAL NUMBER OF POINT SOURCES/SINKS PRESENT IN THE FLOW MODEL =   240

 MAXIMUM STEPSIZE WHICH MEETS STABILITY CRITERION OF THE SINK & SOURCE TERM
 = 0.1000E+31(WHEN MIN. R.F.=1)  AT K=   0, I=   0, J=   0

 MAXIMUM STEPSIZE WHICH MEETS STABILITY CRITERION OF THE DISPERSION TERM
 = 0.5609E-02(WHEN MIN. R.F.=1)  AT K=   3, I=   2, J=  32
     1 CALLS TO GCG PACKAGE FOR TRANSPORT TIME STEP   9 IN FLOW TIME STEP  42 STRESS PERIOD   2
    13 TOTAL ITERATIONS
 
 SOLVING FOR HEAD 
 FLOW MODEL IS TRANSIENT
 FLOW MODEL CONTAINS CONSTANT-HEAD CELLS


 MAXIMUM STEPSIZE DURING WHICH ANY PARTICLE CANNOT MOVE MORE THAN ONE CELL
 = 0.1188    (WHEN MIN. R.F.=1)  AT K=   3, I=   2, J=  33

 MAXIMUM STEPSIZE WHICH MEETS STABILITY CRITERION OF THE ADVECTION TERM
 (FOR PURE FINITE-DIFFERENCE OPTION, MIXELM=0) 
 = 0.8143E-01(WHEN MIN. R.F.=1)  AT K=   3, I=   2, J=  32


 TOTAL NUMBER OF POINT SOURCES/SINKS PRESENT IN THE FLOW MODEL =   240

 MAXIMUM STEPSIZE WHICH MEETS STABILITY CRITERION OF THE SINK & SOURCE TERM
 = 0.1000E+31(WHEN MIN. R.F.=1)  AT K=   0, I=   0, J=   0

 MAXIMUM STEPSIZE WHICH MEETS STABILITY CRITERION OF THE DISPERSION TERM
 = 0.5609E-02(WHEN MIN. R.F.=1)  AT K=   3, I=   2, J=  32
     1 CALLS TO GCG PACKAGE FOR TRANSPORT TIME STEP  10 IN FLOW TIME STEP  42 STRESS PERIOD   2
    13 TOTAL ITERATIONS



 >>>>>>>>>>>>>>>>>>>>>>>>>>>>>>>>>>>>>>>>>>>>>>>>>>>>>>>FOR COMPONENT NO. 01<<<<<<<<<<<<<<<<<<<<<<<<<<<<<<<<<<<<<<<<<<<<<<<<<<<<<<<


                                            -------------------------------------------
                                                      TRANSPORT STEP NO.   10
                                            -------------------------------------------

 TOTAL ELAPSED TIME SINCE BEGINNING OF SIMULATION =   42.89115    D   
 .....................................................................

                     CUMULATIVE MASS BUDGETS AT END OF TRANSPORT STEP   10, TIME STEP   42, STRESS PERIOD    2
                     ------------------------------------------------------------------------------------------

                                                             IN                           OUT
                                                      ----------------             ----------------
                               CONSTANT CONCENTRATION:    7831.253                   -3609.215    
                                        CONSTANT HEAD:    0.000000                    0.000000    
                               MASS STOR (FLOW MODEL):   0.1243566E-01              -0.3255735E-02
                                MASS STORAGE (SOLUTE):   0.4678816                   -4222.517    
                            ---------------------------------------------------------------------------
                                              [TOTAL]:    7831.733     KG            -7831.736     KG  

                                                          NET (IN - OUT):  -0.2576231E-02
                                                   DISCREPANCY (PERCENT):  -0.3289477E-04
 
 SOLVING FOR HEAD 
 FLOW MODEL IS TRANSIENT
 FLOW MODEL CONTAINS CONSTANT-HEAD CELLS


 MAXIMUM STEPSIZE DURING WHICH ANY PARTICLE CANNOT MOVE MORE THAN ONE CELL
 = 0.1188    (WHEN MIN. R.F.=1)  AT K=   3, I=   2, J=  33

 MAXIMUM STEPSIZE WHICH MEETS STABILITY CRITERION OF THE ADVECTION TERM
 (FOR PURE FINITE-DIFFERENCE OPTION, MIXELM=0) 
 = 0.8143E-01(WHEN MIN. R.F.=1)  AT K=   3, I=   2, J=  32


 TOTAL NUMBER OF POINT SOURCES/SINKS PRESENT IN THE FLOW MODEL =   240

 MAXIMUM STEPSIZE WHICH MEETS STABILITY CRITERION OF THE SINK & SOURCE TERM
 = 0.1000E+31(WHEN MIN. R.F.=1)  AT K=   0, I=   0, J=   0

 MAXIMUM STEPSIZE WHICH MEETS STABILITY CRITERION OF THE DISPERSION TERM
 = 0.5609E-02(WHEN MIN. R.F.=1)  AT K=   3, I=   2, J=  32
     1 CALLS TO GCG PACKAGE FOR TRANSPORT TIME STEP  11 IN FLOW TIME STEP  42 STRESS PERIOD   2
    13 TOTAL ITERATIONS
 
 SOLVING FOR HEAD 
 FLOW MODEL IS TRANSIENT
 FLOW MODEL CONTAINS CONSTANT-HEAD CELLS


 MAXIMUM STEPSIZE DURING WHICH ANY PARTICLE CANNOT MOVE MORE THAN ONE CELL
 = 0.1188    (WHEN MIN. R.F.=1)  AT K=   3, I=   2, J=  33

 MAXIMUM STEPSIZE WHICH MEETS STABILITY CRITERION OF THE ADVECTION TERM
 (FOR PURE FINITE-DIFFERENCE OPTION, MIXELM=0) 
 = 0.8143E-01(WHEN MIN. R.F.=1)  AT K=   3, I=   2, J=  32


 TOTAL NUMBER OF POINT SOURCES/SINKS PRESENT IN THE FLOW MODEL =   240

 MAXIMUM STEPSIZE WHICH MEETS STABILITY CRITERION OF THE SINK & SOURCE TERM
 = 0.1000E+31(WHEN MIN. R.F.=1)  AT K=   0, I=   0, J=   0

 MAXIMUM STEPSIZE WHICH MEETS STABILITY CRITERION OF THE DISPERSION TERM
 = 0.5609E-02(WHEN MIN. R.F.=1)  AT K=   3, I=   2, J=  32
     1 CALLS TO GCG PACKAGE FOR TRANSPORT TIME STEP  12 IN FLOW TIME STEP  42 STRESS PERIOD   2
     7 TOTAL ITERATIONS
  MAXIMUM CONCENTRATION CHANGES FOR EACH ITERATION:
  MAX. CHANGE LAYER,ROW,COL MAX. CHANGE LAYER,ROW,COL MAX. CHANGE LAYER,ROW,COL MAX. CHANGE LAYER,ROW,COL MAX. CHANGE LAYER,ROW,COL
 ------------------------------------------------------------------------------------------------------------------------------------
   0.2014E-03 ( 13,  2, 59)  0.2091E-04 (  6,  2, 60)  0.3000E-05 (  5,  2, 57)  0.9501E-06 (  3,  2, 33)  0.4374E-06 (  4,  2, 33)
   0.1789E-06 (  3,  2, 33)  0.4946E-07 (  2,  2, 33)


                                          ================================================
                                                         FROM TIME =   43.000     TO    44.000    

 
 SOLVING FOR HEAD 
 FLOW MODEL IS TRANSIENT
 FLOW MODEL CONTAINS CONSTANT-HEAD CELLS


 MAXIMUM STEPSIZE DURING WHICH ANY PARTICLE CANNOT MOVE MORE THAN ONE CELL
 = 0.1188    (WHEN MIN. R.F.=1)  AT K=   3, I=   2, J=  33

 MAXIMUM STEPSIZE WHICH MEETS STABILITY CRITERION OF THE ADVECTION TERM
 (FOR PURE FINITE-DIFFERENCE OPTION, MIXELM=0) 
 = 0.8143E-01(WHEN MIN. R.F.=1)  AT K=   3, I=   2, J=  32


 TOTAL NUMBER OF POINT SOURCES/SINKS PRESENT IN THE FLOW MODEL =   240

 MAXIMUM STEPSIZE WHICH MEETS STABILITY CRITERION OF THE SINK & SOURCE TERM
 = 0.1000E+31(WHEN MIN. R.F.=1)  AT K=   0, I=   0, J=   0

 MAXIMUM STEPSIZE WHICH MEETS STABILITY CRITERION OF THE DISPERSION TERM
 = 0.5609E-02(WHEN MIN. R.F.=1)  AT K=   3, I=   2, J=  32


     1 CALLS TO GCG PACKAGE FOR TRANSPORT TIME STEP   1 IN FLOW TIME STEP  43 STRESS PERIOD   2
    13 TOTAL ITERATIONS

 NO OUTPUT CONTROL FOR STRESS PERIOD    2   TIME STEP  43
 
 SOLVING FOR HEAD 
 FLOW MODEL IS TRANSIENT
 FLOW MODEL CONTAINS CONSTANT-HEAD CELLS


 MAXIMUM STEPSIZE DURING WHICH ANY PARTICLE CANNOT MOVE MORE THAN ONE CELL
 = 0.1188    (WHEN MIN. R.F.=1)  AT K=   3, I=   2, J=  33

 MAXIMUM STEPSIZE WHICH MEETS STABILITY CRITERION OF THE ADVECTION TERM
 (FOR PURE FINITE-DIFFERENCE OPTION, MIXELM=0) 
 = 0.8143E-01(WHEN MIN. R.F.=1)  AT K=   3, I=   2, J=  32


 TOTAL NUMBER OF POINT SOURCES/SINKS PRESENT IN THE FLOW MODEL =   240

 MAXIMUM STEPSIZE WHICH MEETS STABILITY CRITERION OF THE SINK & SOURCE TERM
 = 0.1000E+31(WHEN MIN. R.F.=1)  AT K=   0, I=   0, J=   0

 MAXIMUM STEPSIZE WHICH MEETS STABILITY CRITERION OF THE DISPERSION TERM
 = 0.5609E-02(WHEN MIN. R.F.=1)  AT K=   3, I=   2, J=  32
     1 CALLS TO GCG PACKAGE FOR TRANSPORT TIME STEP   2 IN FLOW TIME STEP  43 STRESS PERIOD   2
    13 TOTAL ITERATIONS
 
 SOLVING FOR HEAD 
 FLOW MODEL IS TRANSIENT
 FLOW MODEL CONTAINS CONSTANT-HEAD CELLS


 MAXIMUM STEPSIZE DURING WHICH ANY PARTICLE CANNOT MOVE MORE THAN ONE CELL
 = 0.1188    (WHEN MIN. R.F.=1)  AT K=   3, I=   2, J=  33

 MAXIMUM STEPSIZE WHICH MEETS STABILITY CRITERION OF THE ADVECTION TERM
 (FOR PURE FINITE-DIFFERENCE OPTION, MIXELM=0) 
 = 0.8143E-01(WHEN MIN. R.F.=1)  AT K=   3, I=   2, J=  32


 TOTAL NUMBER OF POINT SOURCES/SINKS PRESENT IN THE FLOW MODEL =   240

 MAXIMUM STEPSIZE WHICH MEETS STABILITY CRITERION OF THE SINK & SOURCE TERM
 = 0.1000E+31(WHEN MIN. R.F.=1)  AT K=   0, I=   0, J=   0

 MAXIMUM STEPSIZE WHICH MEETS STABILITY CRITERION OF THE DISPERSION TERM
 = 0.5609E-02(WHEN MIN. R.F.=1)  AT K=   3, I=   2, J=  32
     1 CALLS TO GCG PACKAGE FOR TRANSPORT TIME STEP   3 IN FLOW TIME STEP  43 STRESS PERIOD   2
    13 TOTAL ITERATIONS
 
 SOLVING FOR HEAD 
 FLOW MODEL IS TRANSIENT
 FLOW MODEL CONTAINS CONSTANT-HEAD CELLS


 MAXIMUM STEPSIZE DURING WHICH ANY PARTICLE CANNOT MOVE MORE THAN ONE CELL
 = 0.1188    (WHEN MIN. R.F.=1)  AT K=   3, I=   2, J=  33

 MAXIMUM STEPSIZE WHICH MEETS STABILITY CRITERION OF THE ADVECTION TERM
 (FOR PURE FINITE-DIFFERENCE OPTION, MIXELM=0) 
 = 0.8143E-01(WHEN MIN. R.F.=1)  AT K=   3, I=   2, J=  32


 TOTAL NUMBER OF POINT SOURCES/SINKS PRESENT IN THE FLOW MODEL =   240

 MAXIMUM STEPSIZE WHICH MEETS STABILITY CRITERION OF THE SINK & SOURCE TERM
 = 0.1000E+31(WHEN MIN. R.F.=1)  AT K=   0, I=   0, J=   0

 MAXIMUM STEPSIZE WHICH MEETS STABILITY CRITERION OF THE DISPERSION TERM
 = 0.5609E-02(WHEN MIN. R.F.=1)  AT K=   3, I=   2, J=  32
     1 CALLS TO GCG PACKAGE FOR TRANSPORT TIME STEP   4 IN FLOW TIME STEP  43 STRESS PERIOD   2
    13 TOTAL ITERATIONS
 
 SOLVING FOR HEAD 
 FLOW MODEL IS TRANSIENT
 FLOW MODEL CONTAINS CONSTANT-HEAD CELLS


 MAXIMUM STEPSIZE DURING WHICH ANY PARTICLE CANNOT MOVE MORE THAN ONE CELL
 = 0.1188    (WHEN MIN. R.F.=1)  AT K=   3, I=   2, J=  33

 MAXIMUM STEPSIZE WHICH MEETS STABILITY CRITERION OF THE ADVECTION TERM
 (FOR PURE FINITE-DIFFERENCE OPTION, MIXELM=0) 
 = 0.8143E-01(WHEN MIN. R.F.=1)  AT K=   3, I=   2, J=  32


 TOTAL NUMBER OF POINT SOURCES/SINKS PRESENT IN THE FLOW MODEL =   240

 MAXIMUM STEPSIZE WHICH MEETS STABILITY CRITERION OF THE SINK & SOURCE TERM
 = 0.1000E+31(WHEN MIN. R.F.=1)  AT K=   0, I=   0, J=   0

 MAXIMUM STEPSIZE WHICH MEETS STABILITY CRITERION OF THE DISPERSION TERM
 = 0.5609E-02(WHEN MIN. R.F.=1)  AT K=   3, I=   2, J=  32
     1 CALLS TO GCG PACKAGE FOR TRANSPORT TIME STEP   5 IN FLOW TIME STEP  43 STRESS PERIOD   2
    13 TOTAL ITERATIONS
 
 SOLVING FOR HEAD 
 FLOW MODEL IS TRANSIENT
 FLOW MODEL CONTAINS CONSTANT-HEAD CELLS


 MAXIMUM STEPSIZE DURING WHICH ANY PARTICLE CANNOT MOVE MORE THAN ONE CELL
 = 0.1188    (WHEN MIN. R.F.=1)  AT K=   3, I=   2, J=  33

 MAXIMUM STEPSIZE WHICH MEETS STABILITY CRITERION OF THE ADVECTION TERM
 (FOR PURE FINITE-DIFFERENCE OPTION, MIXELM=0) 
 = 0.8143E-01(WHEN MIN. R.F.=1)  AT K=   3, I=   2, J=  32


 TOTAL NUMBER OF POINT SOURCES/SINKS PRESENT IN THE FLOW MODEL =   240

 MAXIMUM STEPSIZE WHICH MEETS STABILITY CRITERION OF THE SINK & SOURCE TERM
 = 0.1000E+31(WHEN MIN. R.F.=1)  AT K=   0, I=   0, J=   0

 MAXIMUM STEPSIZE WHICH MEETS STABILITY CRITERION OF THE DISPERSION TERM
 = 0.5609E-02(WHEN MIN. R.F.=1)  AT K=   3, I=   2, J=  32
     1 CALLS TO GCG PACKAGE FOR TRANSPORT TIME STEP   6 IN FLOW TIME STEP  43 STRESS PERIOD   2
    13 TOTAL ITERATIONS
 
 SOLVING FOR HEAD 
 FLOW MODEL IS TRANSIENT
 FLOW MODEL CONTAINS CONSTANT-HEAD CELLS


 MAXIMUM STEPSIZE DURING WHICH ANY PARTICLE CANNOT MOVE MORE THAN ONE CELL
 = 0.1188    (WHEN MIN. R.F.=1)  AT K=   3, I=   2, J=  33

 MAXIMUM STEPSIZE WHICH MEETS STABILITY CRITERION OF THE ADVECTION TERM
 (FOR PURE FINITE-DIFFERENCE OPTION, MIXELM=0) 
 = 0.8143E-01(WHEN MIN. R.F.=1)  AT K=   3, I=   2, J=  32


 TOTAL NUMBER OF POINT SOURCES/SINKS PRESENT IN THE FLOW MODEL =   240

 MAXIMUM STEPSIZE WHICH MEETS STABILITY CRITERION OF THE SINK & SOURCE TERM
 = 0.1000E+31(WHEN MIN. R.F.=1)  AT K=   0, I=   0, J=   0

 MAXIMUM STEPSIZE WHICH MEETS STABILITY CRITERION OF THE DISPERSION TERM
 = 0.5609E-02(WHEN MIN. R.F.=1)  AT K=   3, I=   2, J=  32
     1 CALLS TO GCG PACKAGE FOR TRANSPORT TIME STEP   7 IN FLOW TIME STEP  43 STRESS PERIOD   2
    13 TOTAL ITERATIONS
 
 SOLVING FOR HEAD 
 FLOW MODEL IS TRANSIENT
 FLOW MODEL CONTAINS CONSTANT-HEAD CELLS


 MAXIMUM STEPSIZE DURING WHICH ANY PARTICLE CANNOT MOVE MORE THAN ONE CELL
 = 0.1188    (WHEN MIN. R.F.=1)  AT K=   3, I=   2, J=  33

 MAXIMUM STEPSIZE WHICH MEETS STABILITY CRITERION OF THE ADVECTION TERM
 (FOR PURE FINITE-DIFFERENCE OPTION, MIXELM=0) 
 = 0.8143E-01(WHEN MIN. R.F.=1)  AT K=   3, I=   2, J=  32


 TOTAL NUMBER OF POINT SOURCES/SINKS PRESENT IN THE FLOW MODEL =   240

 MAXIMUM STEPSIZE WHICH MEETS STABILITY CRITERION OF THE SINK & SOURCE TERM
 = 0.1000E+31(WHEN MIN. R.F.=1)  AT K=   0, I=   0, J=   0

 MAXIMUM STEPSIZE WHICH MEETS STABILITY CRITERION OF THE DISPERSION TERM
 = 0.5609E-02(WHEN MIN. R.F.=1)  AT K=   3, I=   2, J=  32
     1 CALLS TO GCG PACKAGE FOR TRANSPORT TIME STEP   8 IN FLOW TIME STEP  43 STRESS PERIOD   2
    13 TOTAL ITERATIONS
 
 SOLVING FOR HEAD 
 FLOW MODEL IS TRANSIENT
 FLOW MODEL CONTAINS CONSTANT-HEAD CELLS


 MAXIMUM STEPSIZE DURING WHICH ANY PARTICLE CANNOT MOVE MORE THAN ONE CELL
 = 0.1188    (WHEN MIN. R.F.=1)  AT K=   3, I=   2, J=  33

 MAXIMUM STEPSIZE WHICH MEETS STABILITY CRITERION OF THE ADVECTION TERM
 (FOR PURE FINITE-DIFFERENCE OPTION, MIXELM=0) 
 = 0.8143E-01(WHEN MIN. R.F.=1)  AT K=   3, I=   2, J=  32


 TOTAL NUMBER OF POINT SOURCES/SINKS PRESENT IN THE FLOW MODEL =   240

 MAXIMUM STEPSIZE WHICH MEETS STABILITY CRITERION OF THE SINK & SOURCE TERM
 = 0.1000E+31(WHEN MIN. R.F.=1)  AT K=   0, I=   0, J=   0

 MAXIMUM STEPSIZE WHICH MEETS STABILITY CRITERION OF THE DISPERSION TERM
 = 0.5609E-02(WHEN MIN. R.F.=1)  AT K=   3, I=   2, J=  32
     1 CALLS TO GCG PACKAGE FOR TRANSPORT TIME STEP   9 IN FLOW TIME STEP  43 STRESS PERIOD   2
    13 TOTAL ITERATIONS
 
 SOLVING FOR HEAD 
 FLOW MODEL IS TRANSIENT
 FLOW MODEL CONTAINS CONSTANT-HEAD CELLS


 MAXIMUM STEPSIZE DURING WHICH ANY PARTICLE CANNOT MOVE MORE THAN ONE CELL
 = 0.1188    (WHEN MIN. R.F.=1)  AT K=   3, I=   2, J=  33

 MAXIMUM STEPSIZE WHICH MEETS STABILITY CRITERION OF THE ADVECTION TERM
 (FOR PURE FINITE-DIFFERENCE OPTION, MIXELM=0) 
 = 0.8143E-01(WHEN MIN. R.F.=1)  AT K=   3, I=   2, J=  32


 TOTAL NUMBER OF POINT SOURCES/SINKS PRESENT IN THE FLOW MODEL =   240

 MAXIMUM STEPSIZE WHICH MEETS STABILITY CRITERION OF THE SINK & SOURCE TERM
 = 0.1000E+31(WHEN MIN. R.F.=1)  AT K=   0, I=   0, J=   0

 MAXIMUM STEPSIZE WHICH MEETS STABILITY CRITERION OF THE DISPERSION TERM
 = 0.5609E-02(WHEN MIN. R.F.=1)  AT K=   3, I=   2, J=  32
     1 CALLS TO GCG PACKAGE FOR TRANSPORT TIME STEP  10 IN FLOW TIME STEP  43 STRESS PERIOD   2
    13 TOTAL ITERATIONS



 >>>>>>>>>>>>>>>>>>>>>>>>>>>>>>>>>>>>>>>>>>>>>>>>>>>>>>>FOR COMPONENT NO. 01<<<<<<<<<<<<<<<<<<<<<<<<<<<<<<<<<<<<<<<<<<<<<<<<<<<<<<<


                                            -------------------------------------------
                                                      TRANSPORT STEP NO.   10
                                            -------------------------------------------

 TOTAL ELAPSED TIME SINCE BEGINNING OF SIMULATION =   43.89111    D   
 .....................................................................

                     CUMULATIVE MASS BUDGETS AT END OF TRANSPORT STEP   10, TIME STEP   43, STRESS PERIOD    2
                     ------------------------------------------------------------------------------------------

                                                             IN                           OUT
                                                      ----------------             ----------------
                               CONSTANT CONCENTRATION:    7948.373                   -3701.166    
                                        CONSTANT HEAD:    0.000000                    0.000000    
                               MASS STOR (FLOW MODEL):   0.1245524E-01              -0.3262825E-02
                                MASS STORAGE (SOLUTE):   0.5262965                   -4247.745    
                            ---------------------------------------------------------------------------
                                              [TOTAL]:    7948.912     KG            -7948.914     KG  

                                                          NET (IN - OUT):  -0.2605767E-02
                                                   DISCREPANCY (PERCENT):  -0.3278142E-04
 
 SOLVING FOR HEAD 
 FLOW MODEL IS TRANSIENT
 FLOW MODEL CONTAINS CONSTANT-HEAD CELLS


 MAXIMUM STEPSIZE DURING WHICH ANY PARTICLE CANNOT MOVE MORE THAN ONE CELL
 = 0.1188    (WHEN MIN. R.F.=1)  AT K=   3, I=   2, J=  33

 MAXIMUM STEPSIZE WHICH MEETS STABILITY CRITERION OF THE ADVECTION TERM
 (FOR PURE FINITE-DIFFERENCE OPTION, MIXELM=0) 
 = 0.8142E-01(WHEN MIN. R.F.=1)  AT K=   3, I=   2, J=  32


 TOTAL NUMBER OF POINT SOURCES/SINKS PRESENT IN THE FLOW MODEL =   240

 MAXIMUM STEPSIZE WHICH MEETS STABILITY CRITERION OF THE SINK & SOURCE TERM
 = 0.1000E+31(WHEN MIN. R.F.=1)  AT K=   0, I=   0, J=   0

 MAXIMUM STEPSIZE WHICH MEETS STABILITY CRITERION OF THE DISPERSION TERM
 = 0.5609E-02(WHEN MIN. R.F.=1)  AT K=   3, I=   2, J=  32
     1 CALLS TO GCG PACKAGE FOR TRANSPORT TIME STEP  11 IN FLOW TIME STEP  43 STRESS PERIOD   2
    13 TOTAL ITERATIONS
 
 SOLVING FOR HEAD 
 FLOW MODEL IS TRANSIENT
 FLOW MODEL CONTAINS CONSTANT-HEAD CELLS


 MAXIMUM STEPSIZE DURING WHICH ANY PARTICLE CANNOT MOVE MORE THAN ONE CELL
 = 0.1188    (WHEN MIN. R.F.=1)  AT K=   3, I=   2, J=  33

 MAXIMUM STEPSIZE WHICH MEETS STABILITY CRITERION OF THE ADVECTION TERM
 (FOR PURE FINITE-DIFFERENCE OPTION, MIXELM=0) 
 = 0.8142E-01(WHEN MIN. R.F.=1)  AT K=   3, I=   2, J=  32


 TOTAL NUMBER OF POINT SOURCES/SINKS PRESENT IN THE FLOW MODEL =   240

 MAXIMUM STEPSIZE WHICH MEETS STABILITY CRITERION OF THE SINK & SOURCE TERM
 = 0.1000E+31(WHEN MIN. R.F.=1)  AT K=   0, I=   0, J=   0

 MAXIMUM STEPSIZE WHICH MEETS STABILITY CRITERION OF THE DISPERSION TERM
 = 0.5609E-02(WHEN MIN. R.F.=1)  AT K=   3, I=   2, J=  32
     1 CALLS TO GCG PACKAGE FOR TRANSPORT TIME STEP  12 IN FLOW TIME STEP  43 STRESS PERIOD   2
     7 TOTAL ITERATIONS
  MAXIMUM CONCENTRATION CHANGES FOR EACH ITERATION:
  MAX. CHANGE LAYER,ROW,COL MAX. CHANGE LAYER,ROW,COL MAX. CHANGE LAYER,ROW,COL MAX. CHANGE LAYER,ROW,COL MAX. CHANGE LAYER,ROW,COL
 ------------------------------------------------------------------------------------------------------------------------------------
   0.1971E-03 ( 13,  2, 59)  0.2007E-04 (  6,  2, 60)  0.2886E-05 (  5,  2, 57)  0.9055E-06 (  3,  2, 33)  0.4176E-06 (  4,  2, 33)
   0.1710E-06 (  3,  2, 33)  0.4741E-07 (  2,  2, 33)


                                          ================================================
                                                         FROM TIME =   44.000     TO    45.000    

 
 SOLVING FOR HEAD 
 FLOW MODEL IS TRANSIENT
 FLOW MODEL CONTAINS CONSTANT-HEAD CELLS


 MAXIMUM STEPSIZE DURING WHICH ANY PARTICLE CANNOT MOVE MORE THAN ONE CELL
 = 0.1188    (WHEN MIN. R.F.=1)  AT K=   3, I=   2, J=  33

 MAXIMUM STEPSIZE WHICH MEETS STABILITY CRITERION OF THE ADVECTION TERM
 (FOR PURE FINITE-DIFFERENCE OPTION, MIXELM=0) 
 = 0.8142E-01(WHEN MIN. R.F.=1)  AT K=   3, I=   2, J=  32


 TOTAL NUMBER OF POINT SOURCES/SINKS PRESENT IN THE FLOW MODEL =   240

 MAXIMUM STEPSIZE WHICH MEETS STABILITY CRITERION OF THE SINK & SOURCE TERM
 = 0.1000E+31(WHEN MIN. R.F.=1)  AT K=   0, I=   0, J=   0

 MAXIMUM STEPSIZE WHICH MEETS STABILITY CRITERION OF THE DISPERSION TERM
 = 0.5609E-02(WHEN MIN. R.F.=1)  AT K=   3, I=   2, J=  32


     1 CALLS TO GCG PACKAGE FOR TRANSPORT TIME STEP   1 IN FLOW TIME STEP  44 STRESS PERIOD   2
    13 TOTAL ITERATIONS

 NO OUTPUT CONTROL FOR STRESS PERIOD    2   TIME STEP  44
 
 SOLVING FOR HEAD 
 FLOW MODEL IS TRANSIENT
 FLOW MODEL CONTAINS CONSTANT-HEAD CELLS


 MAXIMUM STEPSIZE DURING WHICH ANY PARTICLE CANNOT MOVE MORE THAN ONE CELL
 = 0.1188    (WHEN MIN. R.F.=1)  AT K=   3, I=   2, J=  33

 MAXIMUM STEPSIZE WHICH MEETS STABILITY CRITERION OF THE ADVECTION TERM
 (FOR PURE FINITE-DIFFERENCE OPTION, MIXELM=0) 
 = 0.8142E-01(WHEN MIN. R.F.=1)  AT K=   3, I=   2, J=  32


 TOTAL NUMBER OF POINT SOURCES/SINKS PRESENT IN THE FLOW MODEL =   240

 MAXIMUM STEPSIZE WHICH MEETS STABILITY CRITERION OF THE SINK & SOURCE TERM
 = 0.1000E+31(WHEN MIN. R.F.=1)  AT K=   0, I=   0, J=   0

 MAXIMUM STEPSIZE WHICH MEETS STABILITY CRITERION OF THE DISPERSION TERM
 = 0.5609E-02(WHEN MIN. R.F.=1)  AT K=   3, I=   2, J=  32
     1 CALLS TO GCG PACKAGE FOR TRANSPORT TIME STEP   2 IN FLOW TIME STEP  44 STRESS PERIOD   2
    13 TOTAL ITERATIONS
 
 SOLVING FOR HEAD 
 FLOW MODEL IS TRANSIENT
 FLOW MODEL CONTAINS CONSTANT-HEAD CELLS


 MAXIMUM STEPSIZE DURING WHICH ANY PARTICLE CANNOT MOVE MORE THAN ONE CELL
 = 0.1188    (WHEN MIN. R.F.=1)  AT K=   3, I=   2, J=  33

 MAXIMUM STEPSIZE WHICH MEETS STABILITY CRITERION OF THE ADVECTION TERM
 (FOR PURE FINITE-DIFFERENCE OPTION, MIXELM=0) 
 = 0.8142E-01(WHEN MIN. R.F.=1)  AT K=   3, I=   2, J=  32


 TOTAL NUMBER OF POINT SOURCES/SINKS PRESENT IN THE FLOW MODEL =   240

 MAXIMUM STEPSIZE WHICH MEETS STABILITY CRITERION OF THE SINK & SOURCE TERM
 = 0.1000E+31(WHEN MIN. R.F.=1)  AT K=   0, I=   0, J=   0

 MAXIMUM STEPSIZE WHICH MEETS STABILITY CRITERION OF THE DISPERSION TERM
 = 0.5609E-02(WHEN MIN. R.F.=1)  AT K=   3, I=   2, J=  32
     1 CALLS TO GCG PACKAGE FOR TRANSPORT TIME STEP   3 IN FLOW TIME STEP  44 STRESS PERIOD   2
    13 TOTAL ITERATIONS
 
 SOLVING FOR HEAD 
 FLOW MODEL IS TRANSIENT
 FLOW MODEL CONTAINS CONSTANT-HEAD CELLS


 MAXIMUM STEPSIZE DURING WHICH ANY PARTICLE CANNOT MOVE MORE THAN ONE CELL
 = 0.1188    (WHEN MIN. R.F.=1)  AT K=   3, I=   2, J=  33

 MAXIMUM STEPSIZE WHICH MEETS STABILITY CRITERION OF THE ADVECTION TERM
 (FOR PURE FINITE-DIFFERENCE OPTION, MIXELM=0) 
 = 0.8142E-01(WHEN MIN. R.F.=1)  AT K=   3, I=   2, J=  32


 TOTAL NUMBER OF POINT SOURCES/SINKS PRESENT IN THE FLOW MODEL =   240

 MAXIMUM STEPSIZE WHICH MEETS STABILITY CRITERION OF THE SINK & SOURCE TERM
 = 0.1000E+31(WHEN MIN. R.F.=1)  AT K=   0, I=   0, J=   0

 MAXIMUM STEPSIZE WHICH MEETS STABILITY CRITERION OF THE DISPERSION TERM
 = 0.5609E-02(WHEN MIN. R.F.=1)  AT K=   3, I=   2, J=  32
     1 CALLS TO GCG PACKAGE FOR TRANSPORT TIME STEP   4 IN FLOW TIME STEP  44 STRESS PERIOD   2
    13 TOTAL ITERATIONS
 
 SOLVING FOR HEAD 
 FLOW MODEL IS TRANSIENT
 FLOW MODEL CONTAINS CONSTANT-HEAD CELLS


 MAXIMUM STEPSIZE DURING WHICH ANY PARTICLE CANNOT MOVE MORE THAN ONE CELL
 = 0.1188    (WHEN MIN. R.F.=1)  AT K=   3, I=   2, J=  33

 MAXIMUM STEPSIZE WHICH MEETS STABILITY CRITERION OF THE ADVECTION TERM
 (FOR PURE FINITE-DIFFERENCE OPTION, MIXELM=0) 
 = 0.8142E-01(WHEN MIN. R.F.=1)  AT K=   3, I=   2, J=  32


 TOTAL NUMBER OF POINT SOURCES/SINKS PRESENT IN THE FLOW MODEL =   240

 MAXIMUM STEPSIZE WHICH MEETS STABILITY CRITERION OF THE SINK & SOURCE TERM
 = 0.1000E+31(WHEN MIN. R.F.=1)  AT K=   0, I=   0, J=   0

 MAXIMUM STEPSIZE WHICH MEETS STABILITY CRITERION OF THE DISPERSION TERM
 = 0.5609E-02(WHEN MIN. R.F.=1)  AT K=   3, I=   2, J=  32
     1 CALLS TO GCG PACKAGE FOR TRANSPORT TIME STEP   5 IN FLOW TIME STEP  44 STRESS PERIOD   2
    13 TOTAL ITERATIONS
 
 SOLVING FOR HEAD 
 FLOW MODEL IS TRANSIENT
 FLOW MODEL CONTAINS CONSTANT-HEAD CELLS


 MAXIMUM STEPSIZE DURING WHICH ANY PARTICLE CANNOT MOVE MORE THAN ONE CELL
 = 0.1188    (WHEN MIN. R.F.=1)  AT K=   3, I=   2, J=  33

 MAXIMUM STEPSIZE WHICH MEETS STABILITY CRITERION OF THE ADVECTION TERM
 (FOR PURE FINITE-DIFFERENCE OPTION, MIXELM=0) 
 = 0.8142E-01(WHEN MIN. R.F.=1)  AT K=   3, I=   2, J=  32


 TOTAL NUMBER OF POINT SOURCES/SINKS PRESENT IN THE FLOW MODEL =   240

 MAXIMUM STEPSIZE WHICH MEETS STABILITY CRITERION OF THE SINK & SOURCE TERM
 = 0.1000E+31(WHEN MIN. R.F.=1)  AT K=   0, I=   0, J=   0

 MAXIMUM STEPSIZE WHICH MEETS STABILITY CRITERION OF THE DISPERSION TERM
 = 0.5609E-02(WHEN MIN. R.F.=1)  AT K=   3, I=   2, J=  32
     1 CALLS TO GCG PACKAGE FOR TRANSPORT TIME STEP   6 IN FLOW TIME STEP  44 STRESS PERIOD   2
    13 TOTAL ITERATIONS
 
 SOLVING FOR HEAD 
 FLOW MODEL IS TRANSIENT
 FLOW MODEL CONTAINS CONSTANT-HEAD CELLS


 MAXIMUM STEPSIZE DURING WHICH ANY PARTICLE CANNOT MOVE MORE THAN ONE CELL
 = 0.1188    (WHEN MIN. R.F.=1)  AT K=   3, I=   2, J=  33

 MAXIMUM STEPSIZE WHICH MEETS STABILITY CRITERION OF THE ADVECTION TERM
 (FOR PURE FINITE-DIFFERENCE OPTION, MIXELM=0) 
 = 0.8142E-01(WHEN MIN. R.F.=1)  AT K=   3, I=   2, J=  32


 TOTAL NUMBER OF POINT SOURCES/SINKS PRESENT IN THE FLOW MODEL =   240

 MAXIMUM STEPSIZE WHICH MEETS STABILITY CRITERION OF THE SINK & SOURCE TERM
 = 0.1000E+31(WHEN MIN. R.F.=1)  AT K=   0, I=   0, J=   0

 MAXIMUM STEPSIZE WHICH MEETS STABILITY CRITERION OF THE DISPERSION TERM
 = 0.5608E-02(WHEN MIN. R.F.=1)  AT K=   3, I=   2, J=  32
     1 CALLS TO GCG PACKAGE FOR TRANSPORT TIME STEP   7 IN FLOW TIME STEP  44 STRESS PERIOD   2
    13 TOTAL ITERATIONS
 
 SOLVING FOR HEAD 
 FLOW MODEL IS TRANSIENT
 FLOW MODEL CONTAINS CONSTANT-HEAD CELLS


 MAXIMUM STEPSIZE DURING WHICH ANY PARTICLE CANNOT MOVE MORE THAN ONE CELL
 = 0.1188    (WHEN MIN. R.F.=1)  AT K=   3, I=   2, J=  33

 MAXIMUM STEPSIZE WHICH MEETS STABILITY CRITERION OF THE ADVECTION TERM
 (FOR PURE FINITE-DIFFERENCE OPTION, MIXELM=0) 
 = 0.8142E-01(WHEN MIN. R.F.=1)  AT K=   3, I=   2, J=  32


 TOTAL NUMBER OF POINT SOURCES/SINKS PRESENT IN THE FLOW MODEL =   240

 MAXIMUM STEPSIZE WHICH MEETS STABILITY CRITERION OF THE SINK & SOURCE TERM
 = 0.1000E+31(WHEN MIN. R.F.=1)  AT K=   0, I=   0, J=   0

 MAXIMUM STEPSIZE WHICH MEETS STABILITY CRITERION OF THE DISPERSION TERM
 = 0.5608E-02(WHEN MIN. R.F.=1)  AT K=   3, I=   2, J=  32
     1 CALLS TO GCG PACKAGE FOR TRANSPORT TIME STEP   8 IN FLOW TIME STEP  44 STRESS PERIOD   2
    13 TOTAL ITERATIONS
 
 SOLVING FOR HEAD 
 FLOW MODEL IS TRANSIENT
 FLOW MODEL CONTAINS CONSTANT-HEAD CELLS


 MAXIMUM STEPSIZE DURING WHICH ANY PARTICLE CANNOT MOVE MORE THAN ONE CELL
 = 0.1188    (WHEN MIN. R.F.=1)  AT K=   3, I=   2, J=  33

 MAXIMUM STEPSIZE WHICH MEETS STABILITY CRITERION OF THE ADVECTION TERM
 (FOR PURE FINITE-DIFFERENCE OPTION, MIXELM=0) 
 = 0.8142E-01(WHEN MIN. R.F.=1)  AT K=   3, I=   2, J=  32


 TOTAL NUMBER OF POINT SOURCES/SINKS PRESENT IN THE FLOW MODEL =   240

 MAXIMUM STEPSIZE WHICH MEETS STABILITY CRITERION OF THE SINK & SOURCE TERM
 = 0.1000E+31(WHEN MIN. R.F.=1)  AT K=   0, I=   0, J=   0

 MAXIMUM STEPSIZE WHICH MEETS STABILITY CRITERION OF THE DISPERSION TERM
 = 0.5608E-02(WHEN MIN. R.F.=1)  AT K=   3, I=   2, J=  32
     1 CALLS TO GCG PACKAGE FOR TRANSPORT TIME STEP   9 IN FLOW TIME STEP  44 STRESS PERIOD   2
    13 TOTAL ITERATIONS
 
 SOLVING FOR HEAD 
 FLOW MODEL IS TRANSIENT
 FLOW MODEL CONTAINS CONSTANT-HEAD CELLS


 MAXIMUM STEPSIZE DURING WHICH ANY PARTICLE CANNOT MOVE MORE THAN ONE CELL
 = 0.1188    (WHEN MIN. R.F.=1)  AT K=   3, I=   2, J=  33

 MAXIMUM STEPSIZE WHICH MEETS STABILITY CRITERION OF THE ADVECTION TERM
 (FOR PURE FINITE-DIFFERENCE OPTION, MIXELM=0) 
 = 0.8142E-01(WHEN MIN. R.F.=1)  AT K=   3, I=   2, J=  32


 TOTAL NUMBER OF POINT SOURCES/SINKS PRESENT IN THE FLOW MODEL =   240

 MAXIMUM STEPSIZE WHICH MEETS STABILITY CRITERION OF THE SINK & SOURCE TERM
 = 0.1000E+31(WHEN MIN. R.F.=1)  AT K=   0, I=   0, J=   0

 MAXIMUM STEPSIZE WHICH MEETS STABILITY CRITERION OF THE DISPERSION TERM
 = 0.5608E-02(WHEN MIN. R.F.=1)  AT K=   3, I=   2, J=  32
     1 CALLS TO GCG PACKAGE FOR TRANSPORT TIME STEP  10 IN FLOW TIME STEP  44 STRESS PERIOD   2
    13 TOTAL ITERATIONS



 >>>>>>>>>>>>>>>>>>>>>>>>>>>>>>>>>>>>>>>>>>>>>>>>>>>>>>>FOR COMPONENT NO. 01<<<<<<<<<<<<<<<<<<<<<<<<<<<<<<<<<<<<<<<<<<<<<<<<<<<<<<<


                                            -------------------------------------------
                                                      TRANSPORT STEP NO.   10
                                            -------------------------------------------

 TOTAL ELAPSED TIME SINCE BEGINNING OF SIMULATION =   44.89108    D   
 .....................................................................

                     CUMULATIVE MASS BUDGETS AT END OF TRANSPORT STEP   10, TIME STEP   44, STRESS PERIOD    2
                     ------------------------------------------------------------------------------------------

                                                             IN                           OUT
                                                      ----------------             ----------------
                               CONSTANT CONCENTRATION:    8064.864                   -3793.170    
                                        CONSTANT HEAD:    0.000000                    0.000000    
                               MASS STOR (FLOW MODEL):   0.1247470E-01              -0.3269696E-02
                                MASS STORAGE (SOLUTE):   0.6016721                   -4272.308    
                            ---------------------------------------------------------------------------
                                              [TOTAL]:    8065.478     KG            -8065.481     KG  

                                                          NET (IN - OUT):  -0.2633839E-02
                                                   DISCREPANCY (PERCENT):  -0.3265570E-04
 
 SOLVING FOR HEAD 
 FLOW MODEL IS TRANSIENT
 FLOW MODEL CONTAINS CONSTANT-HEAD CELLS


 MAXIMUM STEPSIZE DURING WHICH ANY PARTICLE CANNOT MOVE MORE THAN ONE CELL
 = 0.1188    (WHEN MIN. R.F.=1)  AT K=   3, I=   2, J=  33

 MAXIMUM STEPSIZE WHICH MEETS STABILITY CRITERION OF THE ADVECTION TERM
 (FOR PURE FINITE-DIFFERENCE OPTION, MIXELM=0) 
 = 0.8142E-01(WHEN MIN. R.F.=1)  AT K=   3, I=   2, J=  32


 TOTAL NUMBER OF POINT SOURCES/SINKS PRESENT IN THE FLOW MODEL =   240

 MAXIMUM STEPSIZE WHICH MEETS STABILITY CRITERION OF THE SINK & SOURCE TERM
 = 0.1000E+31(WHEN MIN. R.F.=1)  AT K=   0, I=   0, J=   0

 MAXIMUM STEPSIZE WHICH MEETS STABILITY CRITERION OF THE DISPERSION TERM
 = 0.5608E-02(WHEN MIN. R.F.=1)  AT K=   3, I=   2, J=  32
     1 CALLS TO GCG PACKAGE FOR TRANSPORT TIME STEP  11 IN FLOW TIME STEP  44 STRESS PERIOD   2
    13 TOTAL ITERATIONS
 
 SOLVING FOR HEAD 
 FLOW MODEL IS TRANSIENT
 FLOW MODEL CONTAINS CONSTANT-HEAD CELLS


 MAXIMUM STEPSIZE DURING WHICH ANY PARTICLE CANNOT MOVE MORE THAN ONE CELL
 = 0.1188    (WHEN MIN. R.F.=1)  AT K=   3, I=   2, J=  33

 MAXIMUM STEPSIZE WHICH MEETS STABILITY CRITERION OF THE ADVECTION TERM
 (FOR PURE FINITE-DIFFERENCE OPTION, MIXELM=0) 
 = 0.8142E-01(WHEN MIN. R.F.=1)  AT K=   3, I=   2, J=  32


 TOTAL NUMBER OF POINT SOURCES/SINKS PRESENT IN THE FLOW MODEL =   240

 MAXIMUM STEPSIZE WHICH MEETS STABILITY CRITERION OF THE SINK & SOURCE TERM
 = 0.1000E+31(WHEN MIN. R.F.=1)  AT K=   0, I=   0, J=   0

 MAXIMUM STEPSIZE WHICH MEETS STABILITY CRITERION OF THE DISPERSION TERM
 = 0.5608E-02(WHEN MIN. R.F.=1)  AT K=   3, I=   2, J=  32
     1 CALLS TO GCG PACKAGE FOR TRANSPORT TIME STEP  12 IN FLOW TIME STEP  44 STRESS PERIOD   2
     7 TOTAL ITERATIONS
  MAXIMUM CONCENTRATION CHANGES FOR EACH ITERATION:
  MAX. CHANGE LAYER,ROW,COL MAX. CHANGE LAYER,ROW,COL MAX. CHANGE LAYER,ROW,COL MAX. CHANGE LAYER,ROW,COL MAX. CHANGE LAYER,ROW,COL
 ------------------------------------------------------------------------------------------------------------------------------------
   0.1928E-03 ( 13,  2, 59)  0.1927E-04 (  6,  2, 60)  0.2777E-05 (  5,  2, 57)  0.8636E-06 (  3,  2, 33)  0.3989E-06 (  4,  2, 33)
   0.1637E-06 (  3,  2, 33)  0.4546E-07 (  2,  2, 33)


                                          ================================================
                                                         FROM TIME =   45.000     TO    46.000    

 
 SOLVING FOR HEAD 
 FLOW MODEL IS TRANSIENT
 FLOW MODEL CONTAINS CONSTANT-HEAD CELLS


 MAXIMUM STEPSIZE DURING WHICH ANY PARTICLE CANNOT MOVE MORE THAN ONE CELL
 = 0.1188    (WHEN MIN. R.F.=1)  AT K=   3, I=   2, J=  33

 MAXIMUM STEPSIZE WHICH MEETS STABILITY CRITERION OF THE ADVECTION TERM
 (FOR PURE FINITE-DIFFERENCE OPTION, MIXELM=0) 
 = 0.8142E-01(WHEN MIN. R.F.=1)  AT K=   3, I=   2, J=  32


 TOTAL NUMBER OF POINT SOURCES/SINKS PRESENT IN THE FLOW MODEL =   240

 MAXIMUM STEPSIZE WHICH MEETS STABILITY CRITERION OF THE SINK & SOURCE TERM
 = 0.1000E+31(WHEN MIN. R.F.=1)  AT K=   0, I=   0, J=   0

 MAXIMUM STEPSIZE WHICH MEETS STABILITY CRITERION OF THE DISPERSION TERM
 = 0.5608E-02(WHEN MIN. R.F.=1)  AT K=   3, I=   2, J=  32


     1 CALLS TO GCG PACKAGE FOR TRANSPORT TIME STEP   1 IN FLOW TIME STEP  45 STRESS PERIOD   2
    13 TOTAL ITERATIONS

 NO OUTPUT CONTROL FOR STRESS PERIOD    2   TIME STEP  45
 
 SOLVING FOR HEAD 
 FLOW MODEL IS TRANSIENT
 FLOW MODEL CONTAINS CONSTANT-HEAD CELLS


 MAXIMUM STEPSIZE DURING WHICH ANY PARTICLE CANNOT MOVE MORE THAN ONE CELL
 = 0.1188    (WHEN MIN. R.F.=1)  AT K=   3, I=   2, J=  33

 MAXIMUM STEPSIZE WHICH MEETS STABILITY CRITERION OF THE ADVECTION TERM
 (FOR PURE FINITE-DIFFERENCE OPTION, MIXELM=0) 
 = 0.8142E-01(WHEN MIN. R.F.=1)  AT K=   3, I=   2, J=  32


 TOTAL NUMBER OF POINT SOURCES/SINKS PRESENT IN THE FLOW MODEL =   240

 MAXIMUM STEPSIZE WHICH MEETS STABILITY CRITERION OF THE SINK & SOURCE TERM
 = 0.1000E+31(WHEN MIN. R.F.=1)  AT K=   0, I=   0, J=   0

 MAXIMUM STEPSIZE WHICH MEETS STABILITY CRITERION OF THE DISPERSION TERM
 = 0.5608E-02(WHEN MIN. R.F.=1)  AT K=   3, I=   2, J=  32
     1 CALLS TO GCG PACKAGE FOR TRANSPORT TIME STEP   2 IN FLOW TIME STEP  45 STRESS PERIOD   2
    13 TOTAL ITERATIONS
 
 SOLVING FOR HEAD 
 FLOW MODEL IS TRANSIENT
 FLOW MODEL CONTAINS CONSTANT-HEAD CELLS


 MAXIMUM STEPSIZE DURING WHICH ANY PARTICLE CANNOT MOVE MORE THAN ONE CELL
 = 0.1188    (WHEN MIN. R.F.=1)  AT K=   3, I=   2, J=  33

 MAXIMUM STEPSIZE WHICH MEETS STABILITY CRITERION OF THE ADVECTION TERM
 (FOR PURE FINITE-DIFFERENCE OPTION, MIXELM=0) 
 = 0.8142E-01(WHEN MIN. R.F.=1)  AT K=   3, I=   2, J=  32


 TOTAL NUMBER OF POINT SOURCES/SINKS PRESENT IN THE FLOW MODEL =   240

 MAXIMUM STEPSIZE WHICH MEETS STABILITY CRITERION OF THE SINK & SOURCE TERM
 = 0.1000E+31(WHEN MIN. R.F.=1)  AT K=   0, I=   0, J=   0

 MAXIMUM STEPSIZE WHICH MEETS STABILITY CRITERION OF THE DISPERSION TERM
 = 0.5608E-02(WHEN MIN. R.F.=1)  AT K=   3, I=   2, J=  32
     1 CALLS TO GCG PACKAGE FOR TRANSPORT TIME STEP   3 IN FLOW TIME STEP  45 STRESS PERIOD   2
    13 TOTAL ITERATIONS
 
 SOLVING FOR HEAD 
 FLOW MODEL IS TRANSIENT
 FLOW MODEL CONTAINS CONSTANT-HEAD CELLS


 MAXIMUM STEPSIZE DURING WHICH ANY PARTICLE CANNOT MOVE MORE THAN ONE CELL
 = 0.1188    (WHEN MIN. R.F.=1)  AT K=   3, I=   2, J=  33

 MAXIMUM STEPSIZE WHICH MEETS STABILITY CRITERION OF THE ADVECTION TERM
 (FOR PURE FINITE-DIFFERENCE OPTION, MIXELM=0) 
 = 0.8142E-01(WHEN MIN. R.F.=1)  AT K=   3, I=   2, J=  32


 TOTAL NUMBER OF POINT SOURCES/SINKS PRESENT IN THE FLOW MODEL =   240

 MAXIMUM STEPSIZE WHICH MEETS STABILITY CRITERION OF THE SINK & SOURCE TERM
 = 0.1000E+31(WHEN MIN. R.F.=1)  AT K=   0, I=   0, J=   0

 MAXIMUM STEPSIZE WHICH MEETS STABILITY CRITERION OF THE DISPERSION TERM
 = 0.5608E-02(WHEN MIN. R.F.=1)  AT K=   3, I=   2, J=  32
     1 CALLS TO GCG PACKAGE FOR TRANSPORT TIME STEP   4 IN FLOW TIME STEP  45 STRESS PERIOD   2
    13 TOTAL ITERATIONS
 
 SOLVING FOR HEAD 
 FLOW MODEL IS TRANSIENT
 FLOW MODEL CONTAINS CONSTANT-HEAD CELLS


 MAXIMUM STEPSIZE DURING WHICH ANY PARTICLE CANNOT MOVE MORE THAN ONE CELL
 = 0.1188    (WHEN MIN. R.F.=1)  AT K=   3, I=   2, J=  33

 MAXIMUM STEPSIZE WHICH MEETS STABILITY CRITERION OF THE ADVECTION TERM
 (FOR PURE FINITE-DIFFERENCE OPTION, MIXELM=0) 
 = 0.8142E-01(WHEN MIN. R.F.=1)  AT K=   3, I=   2, J=  32


 TOTAL NUMBER OF POINT SOURCES/SINKS PRESENT IN THE FLOW MODEL =   240

 MAXIMUM STEPSIZE WHICH MEETS STABILITY CRITERION OF THE SINK & SOURCE TERM
 = 0.1000E+31(WHEN MIN. R.F.=1)  AT K=   0, I=   0, J=   0

 MAXIMUM STEPSIZE WHICH MEETS STABILITY CRITERION OF THE DISPERSION TERM
 = 0.5608E-02(WHEN MIN. R.F.=1)  AT K=   3, I=   2, J=  32
     1 CALLS TO GCG PACKAGE FOR TRANSPORT TIME STEP   5 IN FLOW TIME STEP  45 STRESS PERIOD   2
    13 TOTAL ITERATIONS
 
 SOLVING FOR HEAD 
 FLOW MODEL IS TRANSIENT
 FLOW MODEL CONTAINS CONSTANT-HEAD CELLS


 MAXIMUM STEPSIZE DURING WHICH ANY PARTICLE CANNOT MOVE MORE THAN ONE CELL
 = 0.1188    (WHEN MIN. R.F.=1)  AT K=   3, I=   2, J=  33

 MAXIMUM STEPSIZE WHICH MEETS STABILITY CRITERION OF THE ADVECTION TERM
 (FOR PURE FINITE-DIFFERENCE OPTION, MIXELM=0) 
 = 0.8142E-01(WHEN MIN. R.F.=1)  AT K=   3, I=   2, J=  32


 TOTAL NUMBER OF POINT SOURCES/SINKS PRESENT IN THE FLOW MODEL =   240

 MAXIMUM STEPSIZE WHICH MEETS STABILITY CRITERION OF THE SINK & SOURCE TERM
 = 0.1000E+31(WHEN MIN. R.F.=1)  AT K=   0, I=   0, J=   0

 MAXIMUM STEPSIZE WHICH MEETS STABILITY CRITERION OF THE DISPERSION TERM
 = 0.5608E-02(WHEN MIN. R.F.=1)  AT K=   3, I=   2, J=  32
     1 CALLS TO GCG PACKAGE FOR TRANSPORT TIME STEP   6 IN FLOW TIME STEP  45 STRESS PERIOD   2
    13 TOTAL ITERATIONS
 
 SOLVING FOR HEAD 
 FLOW MODEL IS TRANSIENT
 FLOW MODEL CONTAINS CONSTANT-HEAD CELLS


 MAXIMUM STEPSIZE DURING WHICH ANY PARTICLE CANNOT MOVE MORE THAN ONE CELL
 = 0.1188    (WHEN MIN. R.F.=1)  AT K=   3, I=   2, J=  33

 MAXIMUM STEPSIZE WHICH MEETS STABILITY CRITERION OF THE ADVECTION TERM
 (FOR PURE FINITE-DIFFERENCE OPTION, MIXELM=0) 
 = 0.8142E-01(WHEN MIN. R.F.=1)  AT K=   3, I=   2, J=  32


 TOTAL NUMBER OF POINT SOURCES/SINKS PRESENT IN THE FLOW MODEL =   240

 MAXIMUM STEPSIZE WHICH MEETS STABILITY CRITERION OF THE SINK & SOURCE TERM
 = 0.1000E+31(WHEN MIN. R.F.=1)  AT K=   0, I=   0, J=   0

 MAXIMUM STEPSIZE WHICH MEETS STABILITY CRITERION OF THE DISPERSION TERM
 = 0.5608E-02(WHEN MIN. R.F.=1)  AT K=   3, I=   2, J=  32
     1 CALLS TO GCG PACKAGE FOR TRANSPORT TIME STEP   7 IN FLOW TIME STEP  45 STRESS PERIOD   2
    13 TOTAL ITERATIONS
 
 SOLVING FOR HEAD 
 FLOW MODEL IS TRANSIENT
 FLOW MODEL CONTAINS CONSTANT-HEAD CELLS


 MAXIMUM STEPSIZE DURING WHICH ANY PARTICLE CANNOT MOVE MORE THAN ONE CELL
 = 0.1188    (WHEN MIN. R.F.=1)  AT K=   3, I=   2, J=  33

 MAXIMUM STEPSIZE WHICH MEETS STABILITY CRITERION OF THE ADVECTION TERM
 (FOR PURE FINITE-DIFFERENCE OPTION, MIXELM=0) 
 = 0.8142E-01(WHEN MIN. R.F.=1)  AT K=   3, I=   2, J=  32


 TOTAL NUMBER OF POINT SOURCES/SINKS PRESENT IN THE FLOW MODEL =   240

 MAXIMUM STEPSIZE WHICH MEETS STABILITY CRITERION OF THE SINK & SOURCE TERM
 = 0.1000E+31(WHEN MIN. R.F.=1)  AT K=   0, I=   0, J=   0

 MAXIMUM STEPSIZE WHICH MEETS STABILITY CRITERION OF THE DISPERSION TERM
 = 0.5608E-02(WHEN MIN. R.F.=1)  AT K=   3, I=   2, J=  32
     1 CALLS TO GCG PACKAGE FOR TRANSPORT TIME STEP   8 IN FLOW TIME STEP  45 STRESS PERIOD   2
    13 TOTAL ITERATIONS
 
 SOLVING FOR HEAD 
 FLOW MODEL IS TRANSIENT
 FLOW MODEL CONTAINS CONSTANT-HEAD CELLS


 MAXIMUM STEPSIZE DURING WHICH ANY PARTICLE CANNOT MOVE MORE THAN ONE CELL
 = 0.1188    (WHEN MIN. R.F.=1)  AT K=   3, I=   2, J=  33

 MAXIMUM STEPSIZE WHICH MEETS STABILITY CRITERION OF THE ADVECTION TERM
 (FOR PURE FINITE-DIFFERENCE OPTION, MIXELM=0) 
 = 0.8142E-01(WHEN MIN. R.F.=1)  AT K=   3, I=   2, J=  32


 TOTAL NUMBER OF POINT SOURCES/SINKS PRESENT IN THE FLOW MODEL =   240

 MAXIMUM STEPSIZE WHICH MEETS STABILITY CRITERION OF THE SINK & SOURCE TERM
 = 0.1000E+31(WHEN MIN. R.F.=1)  AT K=   0, I=   0, J=   0

 MAXIMUM STEPSIZE WHICH MEETS STABILITY CRITERION OF THE DISPERSION TERM
 = 0.5608E-02(WHEN MIN. R.F.=1)  AT K=   3, I=   2, J=  32
     1 CALLS TO GCG PACKAGE FOR TRANSPORT TIME STEP   9 IN FLOW TIME STEP  45 STRESS PERIOD   2
    13 TOTAL ITERATIONS
 
 SOLVING FOR HEAD 
 FLOW MODEL IS TRANSIENT
 FLOW MODEL CONTAINS CONSTANT-HEAD CELLS


 MAXIMUM STEPSIZE DURING WHICH ANY PARTICLE CANNOT MOVE MORE THAN ONE CELL
 = 0.1188    (WHEN MIN. R.F.=1)  AT K=   3, I=   2, J=  33

 MAXIMUM STEPSIZE WHICH MEETS STABILITY CRITERION OF THE ADVECTION TERM
 (FOR PURE FINITE-DIFFERENCE OPTION, MIXELM=0) 
 = 0.8142E-01(WHEN MIN. R.F.=1)  AT K=   3, I=   2, J=  32


 TOTAL NUMBER OF POINT SOURCES/SINKS PRESENT IN THE FLOW MODEL =   240

 MAXIMUM STEPSIZE WHICH MEETS STABILITY CRITERION OF THE SINK & SOURCE TERM
 = 0.1000E+31(WHEN MIN. R.F.=1)  AT K=   0, I=   0, J=   0

 MAXIMUM STEPSIZE WHICH MEETS STABILITY CRITERION OF THE DISPERSION TERM
 = 0.5608E-02(WHEN MIN. R.F.=1)  AT K=   3, I=   2, J=  32
     1 CALLS TO GCG PACKAGE FOR TRANSPORT TIME STEP  10 IN FLOW TIME STEP  45 STRESS PERIOD   2
    13 TOTAL ITERATIONS



 >>>>>>>>>>>>>>>>>>>>>>>>>>>>>>>>>>>>>>>>>>>>>>>>>>>>>>>FOR COMPONENT NO. 01<<<<<<<<<<<<<<<<<<<<<<<<<<<<<<<<<<<<<<<<<<<<<<<<<<<<<<<


                                            -------------------------------------------
                                                      TRANSPORT STEP NO.   10
                                            -------------------------------------------

 TOTAL ELAPSED TIME SINCE BEGINNING OF SIMULATION =   45.89104    D   
 .....................................................................

                     CUMULATIVE MASS BUDGETS AT END OF TRANSPORT STEP   10, TIME STEP   45, STRESS PERIOD    2
                     ------------------------------------------------------------------------------------------

                                                             IN                           OUT
                                                      ----------------             ----------------
                               CONSTANT CONCENTRATION:    8180.755                   -3885.223    
                                        CONSTANT HEAD:    0.000000                    0.000000    
                               MASS STOR (FLOW MODEL):   0.1249401E-01              -0.3276360E-02
                                MASS STORAGE (SOLUTE):   0.6937819                   -4296.238    
                            ---------------------------------------------------------------------------
                                              [TOTAL]:    8181.462     KG            -8181.464     KG  

                                                          NET (IN - OUT):  -0.2660600E-02
                                                   DISCREPANCY (PERCENT):  -0.3251986E-04
 
 SOLVING FOR HEAD 
 FLOW MODEL IS TRANSIENT
 FLOW MODEL CONTAINS CONSTANT-HEAD CELLS


 MAXIMUM STEPSIZE DURING WHICH ANY PARTICLE CANNOT MOVE MORE THAN ONE CELL
 = 0.1188    (WHEN MIN. R.F.=1)  AT K=   3, I=   2, J=  33

 MAXIMUM STEPSIZE WHICH MEETS STABILITY CRITERION OF THE ADVECTION TERM
 (FOR PURE FINITE-DIFFERENCE OPTION, MIXELM=0) 
 = 0.8142E-01(WHEN MIN. R.F.=1)  AT K=   3, I=   2, J=  32


 TOTAL NUMBER OF POINT SOURCES/SINKS PRESENT IN THE FLOW MODEL =   240

 MAXIMUM STEPSIZE WHICH MEETS STABILITY CRITERION OF THE SINK & SOURCE TERM
 = 0.1000E+31(WHEN MIN. R.F.=1)  AT K=   0, I=   0, J=   0

 MAXIMUM STEPSIZE WHICH MEETS STABILITY CRITERION OF THE DISPERSION TERM
 = 0.5608E-02(WHEN MIN. R.F.=1)  AT K=   3, I=   2, J=  32
     1 CALLS TO GCG PACKAGE FOR TRANSPORT TIME STEP  11 IN FLOW TIME STEP  45 STRESS PERIOD   2
    13 TOTAL ITERATIONS
 
 SOLVING FOR HEAD 
 FLOW MODEL IS TRANSIENT
 FLOW MODEL CONTAINS CONSTANT-HEAD CELLS


 MAXIMUM STEPSIZE DURING WHICH ANY PARTICLE CANNOT MOVE MORE THAN ONE CELL
 = 0.1188    (WHEN MIN. R.F.=1)  AT K=   3, I=   2, J=  33

 MAXIMUM STEPSIZE WHICH MEETS STABILITY CRITERION OF THE ADVECTION TERM
 (FOR PURE FINITE-DIFFERENCE OPTION, MIXELM=0) 
 = 0.8142E-01(WHEN MIN. R.F.=1)  AT K=   3, I=   2, J=  32


 TOTAL NUMBER OF POINT SOURCES/SINKS PRESENT IN THE FLOW MODEL =   240

 MAXIMUM STEPSIZE WHICH MEETS STABILITY CRITERION OF THE SINK & SOURCE TERM
 = 0.1000E+31(WHEN MIN. R.F.=1)  AT K=   0, I=   0, J=   0

 MAXIMUM STEPSIZE WHICH MEETS STABILITY CRITERION OF THE DISPERSION TERM
 = 0.5608E-02(WHEN MIN. R.F.=1)  AT K=   3, I=   2, J=  32
     1 CALLS TO GCG PACKAGE FOR TRANSPORT TIME STEP  12 IN FLOW TIME STEP  45 STRESS PERIOD   2
     7 TOTAL ITERATIONS
  MAXIMUM CONCENTRATION CHANGES FOR EACH ITERATION:
  MAX. CHANGE LAYER,ROW,COL MAX. CHANGE LAYER,ROW,COL MAX. CHANGE LAYER,ROW,COL MAX. CHANGE LAYER,ROW,COL MAX. CHANGE LAYER,ROW,COL
 ------------------------------------------------------------------------------------------------------------------------------------
   0.1885E-03 ( 13,  2, 59)  0.1852E-04 (  6,  2, 60)  0.2673E-05 (  5,  2, 57)  0.8239E-06 (  3,  2, 33)  0.3812E-06 (  4,  2, 33)
   0.1567E-06 (  3,  2, 33)  0.4362E-07 (  2,  2, 33)


                                          ================================================
                                                         FROM TIME =   46.000     TO    47.000    

 
 SOLVING FOR HEAD 
 FLOW MODEL IS TRANSIENT
 FLOW MODEL CONTAINS CONSTANT-HEAD CELLS


 MAXIMUM STEPSIZE DURING WHICH ANY PARTICLE CANNOT MOVE MORE THAN ONE CELL
 = 0.1188    (WHEN MIN. R.F.=1)  AT K=   3, I=   2, J=  33

 MAXIMUM STEPSIZE WHICH MEETS STABILITY CRITERION OF THE ADVECTION TERM
 (FOR PURE FINITE-DIFFERENCE OPTION, MIXELM=0) 
 = 0.8142E-01(WHEN MIN. R.F.=1)  AT K=   3, I=   2, J=  32


 TOTAL NUMBER OF POINT SOURCES/SINKS PRESENT IN THE FLOW MODEL =   240

 MAXIMUM STEPSIZE WHICH MEETS STABILITY CRITERION OF THE SINK & SOURCE TERM
 = 0.1000E+31(WHEN MIN. R.F.=1)  AT K=   0, I=   0, J=   0

 MAXIMUM STEPSIZE WHICH MEETS STABILITY CRITERION OF THE DISPERSION TERM
 = 0.5608E-02(WHEN MIN. R.F.=1)  AT K=   3, I=   2, J=  32


     1 CALLS TO GCG PACKAGE FOR TRANSPORT TIME STEP   1 IN FLOW TIME STEP  46 STRESS PERIOD   2
    13 TOTAL ITERATIONS

 NO OUTPUT CONTROL FOR STRESS PERIOD    2   TIME STEP  46
 
 SOLVING FOR HEAD 
 FLOW MODEL IS TRANSIENT
 FLOW MODEL CONTAINS CONSTANT-HEAD CELLS


 MAXIMUM STEPSIZE DURING WHICH ANY PARTICLE CANNOT MOVE MORE THAN ONE CELL
 = 0.1188    (WHEN MIN. R.F.=1)  AT K=   3, I=   2, J=  33

 MAXIMUM STEPSIZE WHICH MEETS STABILITY CRITERION OF THE ADVECTION TERM
 (FOR PURE FINITE-DIFFERENCE OPTION, MIXELM=0) 
 = 0.8142E-01(WHEN MIN. R.F.=1)  AT K=   3, I=   2, J=  32


 TOTAL NUMBER OF POINT SOURCES/SINKS PRESENT IN THE FLOW MODEL =   240

 MAXIMUM STEPSIZE WHICH MEETS STABILITY CRITERION OF THE SINK & SOURCE TERM
 = 0.1000E+31(WHEN MIN. R.F.=1)  AT K=   0, I=   0, J=   0

 MAXIMUM STEPSIZE WHICH MEETS STABILITY CRITERION OF THE DISPERSION TERM
 = 0.5608E-02(WHEN MIN. R.F.=1)  AT K=   3, I=   2, J=  32
     1 CALLS TO GCG PACKAGE FOR TRANSPORT TIME STEP   2 IN FLOW TIME STEP  46 STRESS PERIOD   2
    13 TOTAL ITERATIONS
 
 SOLVING FOR HEAD 
 FLOW MODEL IS TRANSIENT
 FLOW MODEL CONTAINS CONSTANT-HEAD CELLS


 MAXIMUM STEPSIZE DURING WHICH ANY PARTICLE CANNOT MOVE MORE THAN ONE CELL
 = 0.1188    (WHEN MIN. R.F.=1)  AT K=   3, I=   2, J=  33

 MAXIMUM STEPSIZE WHICH MEETS STABILITY CRITERION OF THE ADVECTION TERM
 (FOR PURE FINITE-DIFFERENCE OPTION, MIXELM=0) 
 = 0.8142E-01(WHEN MIN. R.F.=1)  AT K=   3, I=   2, J=  32


 TOTAL NUMBER OF POINT SOURCES/SINKS PRESENT IN THE FLOW MODEL =   240

 MAXIMUM STEPSIZE WHICH MEETS STABILITY CRITERION OF THE SINK & SOURCE TERM
 = 0.1000E+31(WHEN MIN. R.F.=1)  AT K=   0, I=   0, J=   0

 MAXIMUM STEPSIZE WHICH MEETS STABILITY CRITERION OF THE DISPERSION TERM
 = 0.5608E-02(WHEN MIN. R.F.=1)  AT K=   3, I=   2, J=  32
     1 CALLS TO GCG PACKAGE FOR TRANSPORT TIME STEP   3 IN FLOW TIME STEP  46 STRESS PERIOD   2
    13 TOTAL ITERATIONS
 
 SOLVING FOR HEAD 
 FLOW MODEL IS TRANSIENT
 FLOW MODEL CONTAINS CONSTANT-HEAD CELLS


 MAXIMUM STEPSIZE DURING WHICH ANY PARTICLE CANNOT MOVE MORE THAN ONE CELL
 = 0.1188    (WHEN MIN. R.F.=1)  AT K=   3, I=   2, J=  33

 MAXIMUM STEPSIZE WHICH MEETS STABILITY CRITERION OF THE ADVECTION TERM
 (FOR PURE FINITE-DIFFERENCE OPTION, MIXELM=0) 
 = 0.8142E-01(WHEN MIN. R.F.=1)  AT K=   3, I=   2, J=  32


 TOTAL NUMBER OF POINT SOURCES/SINKS PRESENT IN THE FLOW MODEL =   240

 MAXIMUM STEPSIZE WHICH MEETS STABILITY CRITERION OF THE SINK & SOURCE TERM
 = 0.1000E+31(WHEN MIN. R.F.=1)  AT K=   0, I=   0, J=   0

 MAXIMUM STEPSIZE WHICH MEETS STABILITY CRITERION OF THE DISPERSION TERM
 = 0.5608E-02(WHEN MIN. R.F.=1)  AT K=   3, I=   2, J=  32
     1 CALLS TO GCG PACKAGE FOR TRANSPORT TIME STEP   4 IN FLOW TIME STEP  46 STRESS PERIOD   2
    13 TOTAL ITERATIONS
 
 SOLVING FOR HEAD 
 FLOW MODEL IS TRANSIENT
 FLOW MODEL CONTAINS CONSTANT-HEAD CELLS


 MAXIMUM STEPSIZE DURING WHICH ANY PARTICLE CANNOT MOVE MORE THAN ONE CELL
 = 0.1188    (WHEN MIN. R.F.=1)  AT K=   3, I=   2, J=  33

 MAXIMUM STEPSIZE WHICH MEETS STABILITY CRITERION OF THE ADVECTION TERM
 (FOR PURE FINITE-DIFFERENCE OPTION, MIXELM=0) 
 = 0.8142E-01(WHEN MIN. R.F.=1)  AT K=   3, I=   2, J=  32


 TOTAL NUMBER OF POINT SOURCES/SINKS PRESENT IN THE FLOW MODEL =   240

 MAXIMUM STEPSIZE WHICH MEETS STABILITY CRITERION OF THE SINK & SOURCE TERM
 = 0.1000E+31(WHEN MIN. R.F.=1)  AT K=   0, I=   0, J=   0

 MAXIMUM STEPSIZE WHICH MEETS STABILITY CRITERION OF THE DISPERSION TERM
 = 0.5608E-02(WHEN MIN. R.F.=1)  AT K=   3, I=   2, J=  32
     1 CALLS TO GCG PACKAGE FOR TRANSPORT TIME STEP   5 IN FLOW TIME STEP  46 STRESS PERIOD   2
    13 TOTAL ITERATIONS
 
 SOLVING FOR HEAD 
 FLOW MODEL IS TRANSIENT
 FLOW MODEL CONTAINS CONSTANT-HEAD CELLS


 MAXIMUM STEPSIZE DURING WHICH ANY PARTICLE CANNOT MOVE MORE THAN ONE CELL
 = 0.1188    (WHEN MIN. R.F.=1)  AT K=   3, I=   2, J=  33

 MAXIMUM STEPSIZE WHICH MEETS STABILITY CRITERION OF THE ADVECTION TERM
 (FOR PURE FINITE-DIFFERENCE OPTION, MIXELM=0) 
 = 0.8142E-01(WHEN MIN. R.F.=1)  AT K=   3, I=   2, J=  32


 TOTAL NUMBER OF POINT SOURCES/SINKS PRESENT IN THE FLOW MODEL =   240

 MAXIMUM STEPSIZE WHICH MEETS STABILITY CRITERION OF THE SINK & SOURCE TERM
 = 0.1000E+31(WHEN MIN. R.F.=1)  AT K=   0, I=   0, J=   0

 MAXIMUM STEPSIZE WHICH MEETS STABILITY CRITERION OF THE DISPERSION TERM
 = 0.5608E-02(WHEN MIN. R.F.=1)  AT K=   3, I=   2, J=  32
     1 CALLS TO GCG PACKAGE FOR TRANSPORT TIME STEP   6 IN FLOW TIME STEP  46 STRESS PERIOD   2
    13 TOTAL ITERATIONS
 
 SOLVING FOR HEAD 
 FLOW MODEL IS TRANSIENT
 FLOW MODEL CONTAINS CONSTANT-HEAD CELLS


 MAXIMUM STEPSIZE DURING WHICH ANY PARTICLE CANNOT MOVE MORE THAN ONE CELL
 = 0.1188    (WHEN MIN. R.F.=1)  AT K=   3, I=   2, J=  33

 MAXIMUM STEPSIZE WHICH MEETS STABILITY CRITERION OF THE ADVECTION TERM
 (FOR PURE FINITE-DIFFERENCE OPTION, MIXELM=0) 
 = 0.8142E-01(WHEN MIN. R.F.=1)  AT K=   3, I=   2, J=  32


 TOTAL NUMBER OF POINT SOURCES/SINKS PRESENT IN THE FLOW MODEL =   240

 MAXIMUM STEPSIZE WHICH MEETS STABILITY CRITERION OF THE SINK & SOURCE TERM
 = 0.1000E+31(WHEN MIN. R.F.=1)  AT K=   0, I=   0, J=   0

 MAXIMUM STEPSIZE WHICH MEETS STABILITY CRITERION OF THE DISPERSION TERM
 = 0.5608E-02(WHEN MIN. R.F.=1)  AT K=   3, I=   2, J=  32
     1 CALLS TO GCG PACKAGE FOR TRANSPORT TIME STEP   7 IN FLOW TIME STEP  46 STRESS PERIOD   2
    13 TOTAL ITERATIONS
 
 SOLVING FOR HEAD 
 FLOW MODEL IS TRANSIENT
 FLOW MODEL CONTAINS CONSTANT-HEAD CELLS


 MAXIMUM STEPSIZE DURING WHICH ANY PARTICLE CANNOT MOVE MORE THAN ONE CELL
 = 0.1188    (WHEN MIN. R.F.=1)  AT K=   3, I=   2, J=  33

 MAXIMUM STEPSIZE WHICH MEETS STABILITY CRITERION OF THE ADVECTION TERM
 (FOR PURE FINITE-DIFFERENCE OPTION, MIXELM=0) 
 = 0.8142E-01(WHEN MIN. R.F.=1)  AT K=   3, I=   2, J=  32


 TOTAL NUMBER OF POINT SOURCES/SINKS PRESENT IN THE FLOW MODEL =   240

 MAXIMUM STEPSIZE WHICH MEETS STABILITY CRITERION OF THE SINK & SOURCE TERM
 = 0.1000E+31(WHEN MIN. R.F.=1)  AT K=   0, I=   0, J=   0

 MAXIMUM STEPSIZE WHICH MEETS STABILITY CRITERION OF THE DISPERSION TERM
 = 0.5608E-02(WHEN MIN. R.F.=1)  AT K=   3, I=   2, J=  32
     1 CALLS TO GCG PACKAGE FOR TRANSPORT TIME STEP   8 IN FLOW TIME STEP  46 STRESS PERIOD   2
    13 TOTAL ITERATIONS
 
 SOLVING FOR HEAD 
 FLOW MODEL IS TRANSIENT
 FLOW MODEL CONTAINS CONSTANT-HEAD CELLS


 MAXIMUM STEPSIZE DURING WHICH ANY PARTICLE CANNOT MOVE MORE THAN ONE CELL
 = 0.1188    (WHEN MIN. R.F.=1)  AT K=   3, I=   2, J=  33

 MAXIMUM STEPSIZE WHICH MEETS STABILITY CRITERION OF THE ADVECTION TERM
 (FOR PURE FINITE-DIFFERENCE OPTION, MIXELM=0) 
 = 0.8142E-01(WHEN MIN. R.F.=1)  AT K=   3, I=   2, J=  32


 TOTAL NUMBER OF POINT SOURCES/SINKS PRESENT IN THE FLOW MODEL =   240

 MAXIMUM STEPSIZE WHICH MEETS STABILITY CRITERION OF THE SINK & SOURCE TERM
 = 0.1000E+31(WHEN MIN. R.F.=1)  AT K=   0, I=   0, J=   0

 MAXIMUM STEPSIZE WHICH MEETS STABILITY CRITERION OF THE DISPERSION TERM
 = 0.5608E-02(WHEN MIN. R.F.=1)  AT K=   3, I=   2, J=  32
     1 CALLS TO GCG PACKAGE FOR TRANSPORT TIME STEP   9 IN FLOW TIME STEP  46 STRESS PERIOD   2
    13 TOTAL ITERATIONS
 
 SOLVING FOR HEAD 
 FLOW MODEL IS TRANSIENT
 FLOW MODEL CONTAINS CONSTANT-HEAD CELLS


 MAXIMUM STEPSIZE DURING WHICH ANY PARTICLE CANNOT MOVE MORE THAN ONE CELL
 = 0.1188    (WHEN MIN. R.F.=1)  AT K=   3, I=   2, J=  33

 MAXIMUM STEPSIZE WHICH MEETS STABILITY CRITERION OF THE ADVECTION TERM
 (FOR PURE FINITE-DIFFERENCE OPTION, MIXELM=0) 
 = 0.8142E-01(WHEN MIN. R.F.=1)  AT K=   3, I=   2, J=  32


 TOTAL NUMBER OF POINT SOURCES/SINKS PRESENT IN THE FLOW MODEL =   240

 MAXIMUM STEPSIZE WHICH MEETS STABILITY CRITERION OF THE SINK & SOURCE TERM
 = 0.1000E+31(WHEN MIN. R.F.=1)  AT K=   0, I=   0, J=   0

 MAXIMUM STEPSIZE WHICH MEETS STABILITY CRITERION OF THE DISPERSION TERM
 = 0.5608E-02(WHEN MIN. R.F.=1)  AT K=   3, I=   2, J=  32
     1 CALLS TO GCG PACKAGE FOR TRANSPORT TIME STEP  10 IN FLOW TIME STEP  46 STRESS PERIOD   2
    13 TOTAL ITERATIONS



 >>>>>>>>>>>>>>>>>>>>>>>>>>>>>>>>>>>>>>>>>>>>>>>>>>>>>>>FOR COMPONENT NO. 01<<<<<<<<<<<<<<<<<<<<<<<<<<<<<<<<<<<<<<<<<<<<<<<<<<<<<<<


                                            -------------------------------------------
                                                      TRANSPORT STEP NO.   10
                                            -------------------------------------------

 TOTAL ELAPSED TIME SINCE BEGINNING OF SIMULATION =   46.89101    D   
 .....................................................................

                     CUMULATIVE MASS BUDGETS AT END OF TRANSPORT STEP   10, TIME STEP   46, STRESS PERIOD    2
                     ------------------------------------------------------------------------------------------

                                                             IN                           OUT
                                                      ----------------             ----------------
                               CONSTANT CONCENTRATION:    8296.075                   -3977.325    
                                        CONSTANT HEAD:    0.000000                    0.000000    
                               MASS STOR (FLOW MODEL):   0.1251319E-01              -0.3282829E-02
                                MASS STORAGE (SOLUTE):   0.8043927                   -4319.567    
                            ---------------------------------------------------------------------------
                                              [TOTAL]:    8296.892     KG            -8296.895     KG  

                                                          NET (IN - OUT):  -0.2686163E-02
                                                   DISCREPANCY (PERCENT):  -0.3237553E-04
 
 SOLVING FOR HEAD 
 FLOW MODEL IS TRANSIENT
 FLOW MODEL CONTAINS CONSTANT-HEAD CELLS


 MAXIMUM STEPSIZE DURING WHICH ANY PARTICLE CANNOT MOVE MORE THAN ONE CELL
 = 0.1188    (WHEN MIN. R.F.=1)  AT K=   3, I=   2, J=  33

 MAXIMUM STEPSIZE WHICH MEETS STABILITY CRITERION OF THE ADVECTION TERM
 (FOR PURE FINITE-DIFFERENCE OPTION, MIXELM=0) 
 = 0.8142E-01(WHEN MIN. R.F.=1)  AT K=   3, I=   2, J=  32


 TOTAL NUMBER OF POINT SOURCES/SINKS PRESENT IN THE FLOW MODEL =   240

 MAXIMUM STEPSIZE WHICH MEETS STABILITY CRITERION OF THE SINK & SOURCE TERM
 = 0.1000E+31(WHEN MIN. R.F.=1)  AT K=   0, I=   0, J=   0

 MAXIMUM STEPSIZE WHICH MEETS STABILITY CRITERION OF THE DISPERSION TERM
 = 0.5608E-02(WHEN MIN. R.F.=1)  AT K=   3, I=   2, J=  32
     1 CALLS TO GCG PACKAGE FOR TRANSPORT TIME STEP  11 IN FLOW TIME STEP  46 STRESS PERIOD   2
    13 TOTAL ITERATIONS
 
 SOLVING FOR HEAD 
 FLOW MODEL IS TRANSIENT
 FLOW MODEL CONTAINS CONSTANT-HEAD CELLS


 MAXIMUM STEPSIZE DURING WHICH ANY PARTICLE CANNOT MOVE MORE THAN ONE CELL
 = 0.1188    (WHEN MIN. R.F.=1)  AT K=   3, I=   2, J=  33

 MAXIMUM STEPSIZE WHICH MEETS STABILITY CRITERION OF THE ADVECTION TERM
 (FOR PURE FINITE-DIFFERENCE OPTION, MIXELM=0) 
 = 0.8142E-01(WHEN MIN. R.F.=1)  AT K=   3, I=   2, J=  32


 TOTAL NUMBER OF POINT SOURCES/SINKS PRESENT IN THE FLOW MODEL =   240

 MAXIMUM STEPSIZE WHICH MEETS STABILITY CRITERION OF THE SINK & SOURCE TERM
 = 0.1000E+31(WHEN MIN. R.F.=1)  AT K=   0, I=   0, J=   0

 MAXIMUM STEPSIZE WHICH MEETS STABILITY CRITERION OF THE DISPERSION TERM
 = 0.5608E-02(WHEN MIN. R.F.=1)  AT K=   3, I=   2, J=  32
     1 CALLS TO GCG PACKAGE FOR TRANSPORT TIME STEP  12 IN FLOW TIME STEP  46 STRESS PERIOD   2
     7 TOTAL ITERATIONS
  MAXIMUM CONCENTRATION CHANGES FOR EACH ITERATION:
  MAX. CHANGE LAYER,ROW,COL MAX. CHANGE LAYER,ROW,COL MAX. CHANGE LAYER,ROW,COL MAX. CHANGE LAYER,ROW,COL MAX. CHANGE LAYER,ROW,COL
 ------------------------------------------------------------------------------------------------------------------------------------
   0.1842E-03 ( 13,  2, 59)  0.1780E-04 (  6,  2, 60)  0.2575E-05 (  5,  2, 57)  0.7860E-06 (  3,  2, 33)  0.3643E-06 (  4,  2, 33)
   0.1500E-06 (  3,  2, 33)  0.4186E-07 (  2,  2, 33)


                                          ================================================
                                                         FROM TIME =   47.000     TO    48.000    

 
 SOLVING FOR HEAD 
 FLOW MODEL IS TRANSIENT
 FLOW MODEL CONTAINS CONSTANT-HEAD CELLS


 MAXIMUM STEPSIZE DURING WHICH ANY PARTICLE CANNOT MOVE MORE THAN ONE CELL
 = 0.1188    (WHEN MIN. R.F.=1)  AT K=   3, I=   2, J=  33

 MAXIMUM STEPSIZE WHICH MEETS STABILITY CRITERION OF THE ADVECTION TERM
 (FOR PURE FINITE-DIFFERENCE OPTION, MIXELM=0) 
 = 0.8142E-01(WHEN MIN. R.F.=1)  AT K=   3, I=   2, J=  32


 TOTAL NUMBER OF POINT SOURCES/SINKS PRESENT IN THE FLOW MODEL =   240

 MAXIMUM STEPSIZE WHICH MEETS STABILITY CRITERION OF THE SINK & SOURCE TERM
 = 0.1000E+31(WHEN MIN. R.F.=1)  AT K=   0, I=   0, J=   0

 MAXIMUM STEPSIZE WHICH MEETS STABILITY CRITERION OF THE DISPERSION TERM
 = 0.5608E-02(WHEN MIN. R.F.=1)  AT K=   3, I=   2, J=  32


     1 CALLS TO GCG PACKAGE FOR TRANSPORT TIME STEP   1 IN FLOW TIME STEP  47 STRESS PERIOD   2
    13 TOTAL ITERATIONS

 NO OUTPUT CONTROL FOR STRESS PERIOD    2   TIME STEP  47
 
 SOLVING FOR HEAD 
 FLOW MODEL IS TRANSIENT
 FLOW MODEL CONTAINS CONSTANT-HEAD CELLS


 MAXIMUM STEPSIZE DURING WHICH ANY PARTICLE CANNOT MOVE MORE THAN ONE CELL
 = 0.1188    (WHEN MIN. R.F.=1)  AT K=   3, I=   2, J=  33

 MAXIMUM STEPSIZE WHICH MEETS STABILITY CRITERION OF THE ADVECTION TERM
 (FOR PURE FINITE-DIFFERENCE OPTION, MIXELM=0) 
 = 0.8142E-01(WHEN MIN. R.F.=1)  AT K=   3, I=   2, J=  32


 TOTAL NUMBER OF POINT SOURCES/SINKS PRESENT IN THE FLOW MODEL =   240

 MAXIMUM STEPSIZE WHICH MEETS STABILITY CRITERION OF THE SINK & SOURCE TERM
 = 0.1000E+31(WHEN MIN. R.F.=1)  AT K=   0, I=   0, J=   0

 MAXIMUM STEPSIZE WHICH MEETS STABILITY CRITERION OF THE DISPERSION TERM
 = 0.5608E-02(WHEN MIN. R.F.=1)  AT K=   3, I=   2, J=  32
     1 CALLS TO GCG PACKAGE FOR TRANSPORT TIME STEP   2 IN FLOW TIME STEP  47 STRESS PERIOD   2
    13 TOTAL ITERATIONS
 
 SOLVING FOR HEAD 
 FLOW MODEL IS TRANSIENT
 FLOW MODEL CONTAINS CONSTANT-HEAD CELLS


 MAXIMUM STEPSIZE DURING WHICH ANY PARTICLE CANNOT MOVE MORE THAN ONE CELL
 = 0.1188    (WHEN MIN. R.F.=1)  AT K=   3, I=   2, J=  33

 MAXIMUM STEPSIZE WHICH MEETS STABILITY CRITERION OF THE ADVECTION TERM
 (FOR PURE FINITE-DIFFERENCE OPTION, MIXELM=0) 
 = 0.8142E-01(WHEN MIN. R.F.=1)  AT K=   3, I=   2, J=  32


 TOTAL NUMBER OF POINT SOURCES/SINKS PRESENT IN THE FLOW MODEL =   240

 MAXIMUM STEPSIZE WHICH MEETS STABILITY CRITERION OF THE SINK & SOURCE TERM
 = 0.1000E+31(WHEN MIN. R.F.=1)  AT K=   0, I=   0, J=   0

 MAXIMUM STEPSIZE WHICH MEETS STABILITY CRITERION OF THE DISPERSION TERM
 = 0.5608E-02(WHEN MIN. R.F.=1)  AT K=   3, I=   2, J=  32
     1 CALLS TO GCG PACKAGE FOR TRANSPORT TIME STEP   3 IN FLOW TIME STEP  47 STRESS PERIOD   2
    13 TOTAL ITERATIONS
 
 SOLVING FOR HEAD 
 FLOW MODEL IS TRANSIENT
 FLOW MODEL CONTAINS CONSTANT-HEAD CELLS


 MAXIMUM STEPSIZE DURING WHICH ANY PARTICLE CANNOT MOVE MORE THAN ONE CELL
 = 0.1188    (WHEN MIN. R.F.=1)  AT K=   3, I=   2, J=  33

 MAXIMUM STEPSIZE WHICH MEETS STABILITY CRITERION OF THE ADVECTION TERM
 (FOR PURE FINITE-DIFFERENCE OPTION, MIXELM=0) 
 = 0.8142E-01(WHEN MIN. R.F.=1)  AT K=   3, I=   2, J=  32


 TOTAL NUMBER OF POINT SOURCES/SINKS PRESENT IN THE FLOW MODEL =   240

 MAXIMUM STEPSIZE WHICH MEETS STABILITY CRITERION OF THE SINK & SOURCE TERM
 = 0.1000E+31(WHEN MIN. R.F.=1)  AT K=   0, I=   0, J=   0

 MAXIMUM STEPSIZE WHICH MEETS STABILITY CRITERION OF THE DISPERSION TERM
 = 0.5608E-02(WHEN MIN. R.F.=1)  AT K=   3, I=   2, J=  32
     1 CALLS TO GCG PACKAGE FOR TRANSPORT TIME STEP   4 IN FLOW TIME STEP  47 STRESS PERIOD   2
    13 TOTAL ITERATIONS
 
 SOLVING FOR HEAD 
 FLOW MODEL IS TRANSIENT
 FLOW MODEL CONTAINS CONSTANT-HEAD CELLS


 MAXIMUM STEPSIZE DURING WHICH ANY PARTICLE CANNOT MOVE MORE THAN ONE CELL
 = 0.1188    (WHEN MIN. R.F.=1)  AT K=   3, I=   2, J=  33

 MAXIMUM STEPSIZE WHICH MEETS STABILITY CRITERION OF THE ADVECTION TERM
 (FOR PURE FINITE-DIFFERENCE OPTION, MIXELM=0) 
 = 0.8142E-01(WHEN MIN. R.F.=1)  AT K=   3, I=   2, J=  32


 TOTAL NUMBER OF POINT SOURCES/SINKS PRESENT IN THE FLOW MODEL =   240

 MAXIMUM STEPSIZE WHICH MEETS STABILITY CRITERION OF THE SINK & SOURCE TERM
 = 0.1000E+31(WHEN MIN. R.F.=1)  AT K=   0, I=   0, J=   0

 MAXIMUM STEPSIZE WHICH MEETS STABILITY CRITERION OF THE DISPERSION TERM
 = 0.5608E-02(WHEN MIN. R.F.=1)  AT K=   3, I=   2, J=  32
     1 CALLS TO GCG PACKAGE FOR TRANSPORT TIME STEP   5 IN FLOW TIME STEP  47 STRESS PERIOD   2
    13 TOTAL ITERATIONS
 
 SOLVING FOR HEAD 
 FLOW MODEL IS TRANSIENT
 FLOW MODEL CONTAINS CONSTANT-HEAD CELLS


 MAXIMUM STEPSIZE DURING WHICH ANY PARTICLE CANNOT MOVE MORE THAN ONE CELL
 = 0.1188    (WHEN MIN. R.F.=1)  AT K=   3, I=   2, J=  33

 MAXIMUM STEPSIZE WHICH MEETS STABILITY CRITERION OF THE ADVECTION TERM
 (FOR PURE FINITE-DIFFERENCE OPTION, MIXELM=0) 
 = 0.8142E-01(WHEN MIN. R.F.=1)  AT K=   3, I=   2, J=  32


 TOTAL NUMBER OF POINT SOURCES/SINKS PRESENT IN THE FLOW MODEL =   240

 MAXIMUM STEPSIZE WHICH MEETS STABILITY CRITERION OF THE SINK & SOURCE TERM
 = 0.1000E+31(WHEN MIN. R.F.=1)  AT K=   0, I=   0, J=   0

 MAXIMUM STEPSIZE WHICH MEETS STABILITY CRITERION OF THE DISPERSION TERM
 = 0.5608E-02(WHEN MIN. R.F.=1)  AT K=   3, I=   2, J=  32
     1 CALLS TO GCG PACKAGE FOR TRANSPORT TIME STEP   6 IN FLOW TIME STEP  47 STRESS PERIOD   2
    13 TOTAL ITERATIONS
 
 SOLVING FOR HEAD 
 FLOW MODEL IS TRANSIENT
 FLOW MODEL CONTAINS CONSTANT-HEAD CELLS


 MAXIMUM STEPSIZE DURING WHICH ANY PARTICLE CANNOT MOVE MORE THAN ONE CELL
 = 0.1188    (WHEN MIN. R.F.=1)  AT K=   3, I=   2, J=  33

 MAXIMUM STEPSIZE WHICH MEETS STABILITY CRITERION OF THE ADVECTION TERM
 (FOR PURE FINITE-DIFFERENCE OPTION, MIXELM=0) 
 = 0.8142E-01(WHEN MIN. R.F.=1)  AT K=   3, I=   2, J=  32


 TOTAL NUMBER OF POINT SOURCES/SINKS PRESENT IN THE FLOW MODEL =   240

 MAXIMUM STEPSIZE WHICH MEETS STABILITY CRITERION OF THE SINK & SOURCE TERM
 = 0.1000E+31(WHEN MIN. R.F.=1)  AT K=   0, I=   0, J=   0

 MAXIMUM STEPSIZE WHICH MEETS STABILITY CRITERION OF THE DISPERSION TERM
 = 0.5608E-02(WHEN MIN. R.F.=1)  AT K=   3, I=   2, J=  32
     1 CALLS TO GCG PACKAGE FOR TRANSPORT TIME STEP   7 IN FLOW TIME STEP  47 STRESS PERIOD   2
    13 TOTAL ITERATIONS
 
 SOLVING FOR HEAD 
 FLOW MODEL IS TRANSIENT
 FLOW MODEL CONTAINS CONSTANT-HEAD CELLS


 MAXIMUM STEPSIZE DURING WHICH ANY PARTICLE CANNOT MOVE MORE THAN ONE CELL
 = 0.1188    (WHEN MIN. R.F.=1)  AT K=   3, I=   2, J=  33

 MAXIMUM STEPSIZE WHICH MEETS STABILITY CRITERION OF THE ADVECTION TERM
 (FOR PURE FINITE-DIFFERENCE OPTION, MIXELM=0) 
 = 0.8141E-01(WHEN MIN. R.F.=1)  AT K=   3, I=   2, J=  32


 TOTAL NUMBER OF POINT SOURCES/SINKS PRESENT IN THE FLOW MODEL =   240

 MAXIMUM STEPSIZE WHICH MEETS STABILITY CRITERION OF THE SINK & SOURCE TERM
 = 0.1000E+31(WHEN MIN. R.F.=1)  AT K=   0, I=   0, J=   0

 MAXIMUM STEPSIZE WHICH MEETS STABILITY CRITERION OF THE DISPERSION TERM
 = 0.5608E-02(WHEN MIN. R.F.=1)  AT K=   3, I=   2, J=  32
     1 CALLS TO GCG PACKAGE FOR TRANSPORT TIME STEP   8 IN FLOW TIME STEP  47 STRESS PERIOD   2
    13 TOTAL ITERATIONS
 
 SOLVING FOR HEAD 
 FLOW MODEL IS TRANSIENT
 FLOW MODEL CONTAINS CONSTANT-HEAD CELLS


 MAXIMUM STEPSIZE DURING WHICH ANY PARTICLE CANNOT MOVE MORE THAN ONE CELL
 = 0.1188    (WHEN MIN. R.F.=1)  AT K=   3, I=   2, J=  33

 MAXIMUM STEPSIZE WHICH MEETS STABILITY CRITERION OF THE ADVECTION TERM
 (FOR PURE FINITE-DIFFERENCE OPTION, MIXELM=0) 
 = 0.8141E-01(WHEN MIN. R.F.=1)  AT K=   3, I=   2, J=  32


 TOTAL NUMBER OF POINT SOURCES/SINKS PRESENT IN THE FLOW MODEL =   240

 MAXIMUM STEPSIZE WHICH MEETS STABILITY CRITERION OF THE SINK & SOURCE TERM
 = 0.1000E+31(WHEN MIN. R.F.=1)  AT K=   0, I=   0, J=   0

 MAXIMUM STEPSIZE WHICH MEETS STABILITY CRITERION OF THE DISPERSION TERM
 = 0.5608E-02(WHEN MIN. R.F.=1)  AT K=   3, I=   2, J=  32
     1 CALLS TO GCG PACKAGE FOR TRANSPORT TIME STEP   9 IN FLOW TIME STEP  47 STRESS PERIOD   2
    13 TOTAL ITERATIONS
 
 SOLVING FOR HEAD 
 FLOW MODEL IS TRANSIENT
 FLOW MODEL CONTAINS CONSTANT-HEAD CELLS


 MAXIMUM STEPSIZE DURING WHICH ANY PARTICLE CANNOT MOVE MORE THAN ONE CELL
 = 0.1188    (WHEN MIN. R.F.=1)  AT K=   3, I=   2, J=  33

 MAXIMUM STEPSIZE WHICH MEETS STABILITY CRITERION OF THE ADVECTION TERM
 (FOR PURE FINITE-DIFFERENCE OPTION, MIXELM=0) 
 = 0.8141E-01(WHEN MIN. R.F.=1)  AT K=   3, I=   2, J=  32


 TOTAL NUMBER OF POINT SOURCES/SINKS PRESENT IN THE FLOW MODEL =   240

 MAXIMUM STEPSIZE WHICH MEETS STABILITY CRITERION OF THE SINK & SOURCE TERM
 = 0.1000E+31(WHEN MIN. R.F.=1)  AT K=   0, I=   0, J=   0

 MAXIMUM STEPSIZE WHICH MEETS STABILITY CRITERION OF THE DISPERSION TERM
 = 0.5608E-02(WHEN MIN. R.F.=1)  AT K=   3, I=   2, J=  32
     1 CALLS TO GCG PACKAGE FOR TRANSPORT TIME STEP  10 IN FLOW TIME STEP  47 STRESS PERIOD   2
    13 TOTAL ITERATIONS



 >>>>>>>>>>>>>>>>>>>>>>>>>>>>>>>>>>>>>>>>>>>>>>>>>>>>>>>FOR COMPONENT NO. 01<<<<<<<<<<<<<<<<<<<<<<<<<<<<<<<<<<<<<<<<<<<<<<<<<<<<<<<


                                            -------------------------------------------
                                                      TRANSPORT STEP NO.   10
                                            -------------------------------------------

 TOTAL ELAPSED TIME SINCE BEGINNING OF SIMULATION =   47.89098    D   
 .....................................................................

                     CUMULATIVE MASS BUDGETS AT END OF TRANSPORT STEP   10, TIME STEP   47, STRESS PERIOD    2
                     ------------------------------------------------------------------------------------------

                                                             IN                           OUT
                                                      ----------------             ----------------
                               CONSTANT CONCENTRATION:    8410.850                   -4069.471    
                                        CONSTANT HEAD:    0.000000                    0.000000    
                               MASS STOR (FLOW MODEL):   0.1253222E-01              -0.3289114E-02
                                MASS STORAGE (SOLUTE):   0.9338202                   -4342.324    
                            ---------------------------------------------------------------------------
                                              [TOTAL]:    8411.796     KG            -8411.799     KG  

                                                          NET (IN - OUT):  -0.2710614E-02
                                                   DISCREPANCY (PERCENT):  -0.3222395E-04
 
 SOLVING FOR HEAD 
 FLOW MODEL IS TRANSIENT
 FLOW MODEL CONTAINS CONSTANT-HEAD CELLS


 MAXIMUM STEPSIZE DURING WHICH ANY PARTICLE CANNOT MOVE MORE THAN ONE CELL
 = 0.1188    (WHEN MIN. R.F.=1)  AT K=   3, I=   2, J=  33

 MAXIMUM STEPSIZE WHICH MEETS STABILITY CRITERION OF THE ADVECTION TERM
 (FOR PURE FINITE-DIFFERENCE OPTION, MIXELM=0) 
 = 0.8141E-01(WHEN MIN. R.F.=1)  AT K=   3, I=   2, J=  32


 TOTAL NUMBER OF POINT SOURCES/SINKS PRESENT IN THE FLOW MODEL =   240

 MAXIMUM STEPSIZE WHICH MEETS STABILITY CRITERION OF THE SINK & SOURCE TERM
 = 0.1000E+31(WHEN MIN. R.F.=1)  AT K=   0, I=   0, J=   0

 MAXIMUM STEPSIZE WHICH MEETS STABILITY CRITERION OF THE DISPERSION TERM
 = 0.5608E-02(WHEN MIN. R.F.=1)  AT K=   3, I=   2, J=  32
     1 CALLS TO GCG PACKAGE FOR TRANSPORT TIME STEP  11 IN FLOW TIME STEP  47 STRESS PERIOD   2
    13 TOTAL ITERATIONS
 
 SOLVING FOR HEAD 
 FLOW MODEL IS TRANSIENT
 FLOW MODEL CONTAINS CONSTANT-HEAD CELLS


 MAXIMUM STEPSIZE DURING WHICH ANY PARTICLE CANNOT MOVE MORE THAN ONE CELL
 = 0.1188    (WHEN MIN. R.F.=1)  AT K=   3, I=   2, J=  33

 MAXIMUM STEPSIZE WHICH MEETS STABILITY CRITERION OF THE ADVECTION TERM
 (FOR PURE FINITE-DIFFERENCE OPTION, MIXELM=0) 
 = 0.8141E-01(WHEN MIN. R.F.=1)  AT K=   3, I=   2, J=  32


 TOTAL NUMBER OF POINT SOURCES/SINKS PRESENT IN THE FLOW MODEL =   240

 MAXIMUM STEPSIZE WHICH MEETS STABILITY CRITERION OF THE SINK & SOURCE TERM
 = 0.1000E+31(WHEN MIN. R.F.=1)  AT K=   0, I=   0, J=   0

 MAXIMUM STEPSIZE WHICH MEETS STABILITY CRITERION OF THE DISPERSION TERM
 = 0.5608E-02(WHEN MIN. R.F.=1)  AT K=   3, I=   2, J=  32
     1 CALLS TO GCG PACKAGE FOR TRANSPORT TIME STEP  12 IN FLOW TIME STEP  47 STRESS PERIOD   2
     7 TOTAL ITERATIONS
  MAXIMUM CONCENTRATION CHANGES FOR EACH ITERATION:
  MAX. CHANGE LAYER,ROW,COL MAX. CHANGE LAYER,ROW,COL MAX. CHANGE LAYER,ROW,COL MAX. CHANGE LAYER,ROW,COL MAX. CHANGE LAYER,ROW,COL
 ------------------------------------------------------------------------------------------------------------------------------------
   0.1807E-03 ( 13,  2, 60)  0.1712E-04 (  6,  2, 60)  0.2480E-05 (  5,  2, 57)  0.7499E-06 (  3,  2, 33)  0.3482E-06 (  4,  2, 33)
   0.1436E-06 (  3,  2, 33)  0.4018E-07 (  2,  2, 33)


                                          ================================================
                                                         FROM TIME =   48.000     TO    49.000    

 
 SOLVING FOR HEAD 
 FLOW MODEL IS TRANSIENT
 FLOW MODEL CONTAINS CONSTANT-HEAD CELLS


 MAXIMUM STEPSIZE DURING WHICH ANY PARTICLE CANNOT MOVE MORE THAN ONE CELL
 = 0.1188    (WHEN MIN. R.F.=1)  AT K=   3, I=   2, J=  33

 MAXIMUM STEPSIZE WHICH MEETS STABILITY CRITERION OF THE ADVECTION TERM
 (FOR PURE FINITE-DIFFERENCE OPTION, MIXELM=0) 
 = 0.8141E-01(WHEN MIN. R.F.=1)  AT K=   3, I=   2, J=  32


 TOTAL NUMBER OF POINT SOURCES/SINKS PRESENT IN THE FLOW MODEL =   240

 MAXIMUM STEPSIZE WHICH MEETS STABILITY CRITERION OF THE SINK & SOURCE TERM
 = 0.1000E+31(WHEN MIN. R.F.=1)  AT K=   0, I=   0, J=   0

 MAXIMUM STEPSIZE WHICH MEETS STABILITY CRITERION OF THE DISPERSION TERM
 = 0.5608E-02(WHEN MIN. R.F.=1)  AT K=   3, I=   2, J=  32


     1 CALLS TO GCG PACKAGE FOR TRANSPORT TIME STEP   1 IN FLOW TIME STEP  48 STRESS PERIOD   2
    13 TOTAL ITERATIONS

 NO OUTPUT CONTROL FOR STRESS PERIOD    2   TIME STEP  48
 
 SOLVING FOR HEAD 
 FLOW MODEL IS TRANSIENT
 FLOW MODEL CONTAINS CONSTANT-HEAD CELLS


 MAXIMUM STEPSIZE DURING WHICH ANY PARTICLE CANNOT MOVE MORE THAN ONE CELL
 = 0.1188    (WHEN MIN. R.F.=1)  AT K=   3, I=   2, J=  33

 MAXIMUM STEPSIZE WHICH MEETS STABILITY CRITERION OF THE ADVECTION TERM
 (FOR PURE FINITE-DIFFERENCE OPTION, MIXELM=0) 
 = 0.8141E-01(WHEN MIN. R.F.=1)  AT K=   3, I=   2, J=  32


 TOTAL NUMBER OF POINT SOURCES/SINKS PRESENT IN THE FLOW MODEL =   240

 MAXIMUM STEPSIZE WHICH MEETS STABILITY CRITERION OF THE SINK & SOURCE TERM
 = 0.1000E+31(WHEN MIN. R.F.=1)  AT K=   0, I=   0, J=   0

 MAXIMUM STEPSIZE WHICH MEETS STABILITY CRITERION OF THE DISPERSION TERM
 = 0.5608E-02(WHEN MIN. R.F.=1)  AT K=   3, I=   2, J=  32
     1 CALLS TO GCG PACKAGE FOR TRANSPORT TIME STEP   2 IN FLOW TIME STEP  48 STRESS PERIOD   2
    13 TOTAL ITERATIONS
 
 SOLVING FOR HEAD 
 FLOW MODEL IS TRANSIENT
 FLOW MODEL CONTAINS CONSTANT-HEAD CELLS


 MAXIMUM STEPSIZE DURING WHICH ANY PARTICLE CANNOT MOVE MORE THAN ONE CELL
 = 0.1188    (WHEN MIN. R.F.=1)  AT K=   3, I=   2, J=  33

 MAXIMUM STEPSIZE WHICH MEETS STABILITY CRITERION OF THE ADVECTION TERM
 (FOR PURE FINITE-DIFFERENCE OPTION, MIXELM=0) 
 = 0.8141E-01(WHEN MIN. R.F.=1)  AT K=   3, I=   2, J=  32


 TOTAL NUMBER OF POINT SOURCES/SINKS PRESENT IN THE FLOW MODEL =   240

 MAXIMUM STEPSIZE WHICH MEETS STABILITY CRITERION OF THE SINK & SOURCE TERM
 = 0.1000E+31(WHEN MIN. R.F.=1)  AT K=   0, I=   0, J=   0

 MAXIMUM STEPSIZE WHICH MEETS STABILITY CRITERION OF THE DISPERSION TERM
 = 0.5608E-02(WHEN MIN. R.F.=1)  AT K=   3, I=   2, J=  32
     1 CALLS TO GCG PACKAGE FOR TRANSPORT TIME STEP   3 IN FLOW TIME STEP  48 STRESS PERIOD   2
    13 TOTAL ITERATIONS
 
 SOLVING FOR HEAD 
 FLOW MODEL IS TRANSIENT
 FLOW MODEL CONTAINS CONSTANT-HEAD CELLS


 MAXIMUM STEPSIZE DURING WHICH ANY PARTICLE CANNOT MOVE MORE THAN ONE CELL
 = 0.1188    (WHEN MIN. R.F.=1)  AT K=   3, I=   2, J=  33

 MAXIMUM STEPSIZE WHICH MEETS STABILITY CRITERION OF THE ADVECTION TERM
 (FOR PURE FINITE-DIFFERENCE OPTION, MIXELM=0) 
 = 0.8141E-01(WHEN MIN. R.F.=1)  AT K=   3, I=   2, J=  32


 TOTAL NUMBER OF POINT SOURCES/SINKS PRESENT IN THE FLOW MODEL =   240

 MAXIMUM STEPSIZE WHICH MEETS STABILITY CRITERION OF THE SINK & SOURCE TERM
 = 0.1000E+31(WHEN MIN. R.F.=1)  AT K=   0, I=   0, J=   0

 MAXIMUM STEPSIZE WHICH MEETS STABILITY CRITERION OF THE DISPERSION TERM
 = 0.5608E-02(WHEN MIN. R.F.=1)  AT K=   3, I=   2, J=  32
     1 CALLS TO GCG PACKAGE FOR TRANSPORT TIME STEP   4 IN FLOW TIME STEP  48 STRESS PERIOD   2
    13 TOTAL ITERATIONS
 
 SOLVING FOR HEAD 
 FLOW MODEL IS TRANSIENT
 FLOW MODEL CONTAINS CONSTANT-HEAD CELLS


 MAXIMUM STEPSIZE DURING WHICH ANY PARTICLE CANNOT MOVE MORE THAN ONE CELL
 = 0.1188    (WHEN MIN. R.F.=1)  AT K=   3, I=   2, J=  33

 MAXIMUM STEPSIZE WHICH MEETS STABILITY CRITERION OF THE ADVECTION TERM
 (FOR PURE FINITE-DIFFERENCE OPTION, MIXELM=0) 
 = 0.8141E-01(WHEN MIN. R.F.=1)  AT K=   3, I=   2, J=  32


 TOTAL NUMBER OF POINT SOURCES/SINKS PRESENT IN THE FLOW MODEL =   240

 MAXIMUM STEPSIZE WHICH MEETS STABILITY CRITERION OF THE SINK & SOURCE TERM
 = 0.1000E+31(WHEN MIN. R.F.=1)  AT K=   0, I=   0, J=   0

 MAXIMUM STEPSIZE WHICH MEETS STABILITY CRITERION OF THE DISPERSION TERM
 = 0.5608E-02(WHEN MIN. R.F.=1)  AT K=   3, I=   2, J=  32
     1 CALLS TO GCG PACKAGE FOR TRANSPORT TIME STEP   5 IN FLOW TIME STEP  48 STRESS PERIOD   2
    13 TOTAL ITERATIONS
 
 SOLVING FOR HEAD 
 FLOW MODEL IS TRANSIENT
 FLOW MODEL CONTAINS CONSTANT-HEAD CELLS


 MAXIMUM STEPSIZE DURING WHICH ANY PARTICLE CANNOT MOVE MORE THAN ONE CELL
 = 0.1188    (WHEN MIN. R.F.=1)  AT K=   3, I=   2, J=  33

 MAXIMUM STEPSIZE WHICH MEETS STABILITY CRITERION OF THE ADVECTION TERM
 (FOR PURE FINITE-DIFFERENCE OPTION, MIXELM=0) 
 = 0.8141E-01(WHEN MIN. R.F.=1)  AT K=   3, I=   2, J=  32


 TOTAL NUMBER OF POINT SOURCES/SINKS PRESENT IN THE FLOW MODEL =   240

 MAXIMUM STEPSIZE WHICH MEETS STABILITY CRITERION OF THE SINK & SOURCE TERM
 = 0.1000E+31(WHEN MIN. R.F.=1)  AT K=   0, I=   0, J=   0

 MAXIMUM STEPSIZE WHICH MEETS STABILITY CRITERION OF THE DISPERSION TERM
 = 0.5608E-02(WHEN MIN. R.F.=1)  AT K=   3, I=   2, J=  32
     1 CALLS TO GCG PACKAGE FOR TRANSPORT TIME STEP   6 IN FLOW TIME STEP  48 STRESS PERIOD   2
    13 TOTAL ITERATIONS
 
 SOLVING FOR HEAD 
 FLOW MODEL IS TRANSIENT
 FLOW MODEL CONTAINS CONSTANT-HEAD CELLS


 MAXIMUM STEPSIZE DURING WHICH ANY PARTICLE CANNOT MOVE MORE THAN ONE CELL
 = 0.1188    (WHEN MIN. R.F.=1)  AT K=   3, I=   2, J=  33

 MAXIMUM STEPSIZE WHICH MEETS STABILITY CRITERION OF THE ADVECTION TERM
 (FOR PURE FINITE-DIFFERENCE OPTION, MIXELM=0) 
 = 0.8141E-01(WHEN MIN. R.F.=1)  AT K=   3, I=   2, J=  32


 TOTAL NUMBER OF POINT SOURCES/SINKS PRESENT IN THE FLOW MODEL =   240

 MAXIMUM STEPSIZE WHICH MEETS STABILITY CRITERION OF THE SINK & SOURCE TERM
 = 0.1000E+31(WHEN MIN. R.F.=1)  AT K=   0, I=   0, J=   0

 MAXIMUM STEPSIZE WHICH MEETS STABILITY CRITERION OF THE DISPERSION TERM
 = 0.5608E-02(WHEN MIN. R.F.=1)  AT K=   3, I=   2, J=  32
     1 CALLS TO GCG PACKAGE FOR TRANSPORT TIME STEP   7 IN FLOW TIME STEP  48 STRESS PERIOD   2
    13 TOTAL ITERATIONS
 
 SOLVING FOR HEAD 
 FLOW MODEL IS TRANSIENT
 FLOW MODEL CONTAINS CONSTANT-HEAD CELLS


 MAXIMUM STEPSIZE DURING WHICH ANY PARTICLE CANNOT MOVE MORE THAN ONE CELL
 = 0.1188    (WHEN MIN. R.F.=1)  AT K=   3, I=   2, J=  33

 MAXIMUM STEPSIZE WHICH MEETS STABILITY CRITERION OF THE ADVECTION TERM
 (FOR PURE FINITE-DIFFERENCE OPTION, MIXELM=0) 
 = 0.8141E-01(WHEN MIN. R.F.=1)  AT K=   3, I=   2, J=  32


 TOTAL NUMBER OF POINT SOURCES/SINKS PRESENT IN THE FLOW MODEL =   240

 MAXIMUM STEPSIZE WHICH MEETS STABILITY CRITERION OF THE SINK & SOURCE TERM
 = 0.1000E+31(WHEN MIN. R.F.=1)  AT K=   0, I=   0, J=   0

 MAXIMUM STEPSIZE WHICH MEETS STABILITY CRITERION OF THE DISPERSION TERM
 = 0.5608E-02(WHEN MIN. R.F.=1)  AT K=   3, I=   2, J=  32
     1 CALLS TO GCG PACKAGE FOR TRANSPORT TIME STEP   8 IN FLOW TIME STEP  48 STRESS PERIOD   2
    13 TOTAL ITERATIONS
 
 SOLVING FOR HEAD 
 FLOW MODEL IS TRANSIENT
 FLOW MODEL CONTAINS CONSTANT-HEAD CELLS


 MAXIMUM STEPSIZE DURING WHICH ANY PARTICLE CANNOT MOVE MORE THAN ONE CELL
 = 0.1188    (WHEN MIN. R.F.=1)  AT K=   3, I=   2, J=  33

 MAXIMUM STEPSIZE WHICH MEETS STABILITY CRITERION OF THE ADVECTION TERM
 (FOR PURE FINITE-DIFFERENCE OPTION, MIXELM=0) 
 = 0.8141E-01(WHEN MIN. R.F.=1)  AT K=   3, I=   2, J=  32


 TOTAL NUMBER OF POINT SOURCES/SINKS PRESENT IN THE FLOW MODEL =   240

 MAXIMUM STEPSIZE WHICH MEETS STABILITY CRITERION OF THE SINK & SOURCE TERM
 = 0.1000E+31(WHEN MIN. R.F.=1)  AT K=   0, I=   0, J=   0

 MAXIMUM STEPSIZE WHICH MEETS STABILITY CRITERION OF THE DISPERSION TERM
 = 0.5608E-02(WHEN MIN. R.F.=1)  AT K=   3, I=   2, J=  32
     1 CALLS TO GCG PACKAGE FOR TRANSPORT TIME STEP   9 IN FLOW TIME STEP  48 STRESS PERIOD   2
    13 TOTAL ITERATIONS
 
 SOLVING FOR HEAD 
 FLOW MODEL IS TRANSIENT
 FLOW MODEL CONTAINS CONSTANT-HEAD CELLS


 MAXIMUM STEPSIZE DURING WHICH ANY PARTICLE CANNOT MOVE MORE THAN ONE CELL
 = 0.1188    (WHEN MIN. R.F.=1)  AT K=   3, I=   2, J=  33

 MAXIMUM STEPSIZE WHICH MEETS STABILITY CRITERION OF THE ADVECTION TERM
 (FOR PURE FINITE-DIFFERENCE OPTION, MIXELM=0) 
 = 0.8141E-01(WHEN MIN. R.F.=1)  AT K=   3, I=   2, J=  32


 TOTAL NUMBER OF POINT SOURCES/SINKS PRESENT IN THE FLOW MODEL =   240

 MAXIMUM STEPSIZE WHICH MEETS STABILITY CRITERION OF THE SINK & SOURCE TERM
 = 0.1000E+31(WHEN MIN. R.F.=1)  AT K=   0, I=   0, J=   0

 MAXIMUM STEPSIZE WHICH MEETS STABILITY CRITERION OF THE DISPERSION TERM
 = 0.5608E-02(WHEN MIN. R.F.=1)  AT K=   3, I=   2, J=  32
     1 CALLS TO GCG PACKAGE FOR TRANSPORT TIME STEP  10 IN FLOW TIME STEP  48 STRESS PERIOD   2
    13 TOTAL ITERATIONS



 >>>>>>>>>>>>>>>>>>>>>>>>>>>>>>>>>>>>>>>>>>>>>>>>>>>>>>>FOR COMPONENT NO. 01<<<<<<<<<<<<<<<<<<<<<<<<<<<<<<<<<<<<<<<<<<<<<<<<<<<<<<<


                                            -------------------------------------------
                                                      TRANSPORT STEP NO.   10
                                            -------------------------------------------

 TOTAL ELAPSED TIME SINCE BEGINNING OF SIMULATION =   48.89095    D   
 .....................................................................

                     CUMULATIVE MASS BUDGETS AT END OF TRANSPORT STEP   10, TIME STEP   48, STRESS PERIOD    2
                     ------------------------------------------------------------------------------------------

                                                             IN                           OUT
                                                      ----------------             ----------------
                               CONSTANT CONCENTRATION:    8525.103                   -4161.662    
                                        CONSTANT HEAD:    0.000000                    0.000000    
                               MASS STOR (FLOW MODEL):   0.1255111E-01              -0.3295220E-02
                                MASS STORAGE (SOLUTE):    1.080657                   -4364.534    
                            ---------------------------------------------------------------------------
                                              [TOTAL]:    8526.196     KG            -8526.199     KG  

                                                          NET (IN - OUT):  -0.2734021E-02
                                                   DISCREPANCY (PERCENT):  -0.3206612E-04
 
 SOLVING FOR HEAD 
 FLOW MODEL IS TRANSIENT
 FLOW MODEL CONTAINS CONSTANT-HEAD CELLS


 MAXIMUM STEPSIZE DURING WHICH ANY PARTICLE CANNOT MOVE MORE THAN ONE CELL
 = 0.1188    (WHEN MIN. R.F.=1)  AT K=   3, I=   2, J=  33

 MAXIMUM STEPSIZE WHICH MEETS STABILITY CRITERION OF THE ADVECTION TERM
 (FOR PURE FINITE-DIFFERENCE OPTION, MIXELM=0) 
 = 0.8141E-01(WHEN MIN. R.F.=1)  AT K=   3, I=   2, J=  32


 TOTAL NUMBER OF POINT SOURCES/SINKS PRESENT IN THE FLOW MODEL =   240

 MAXIMUM STEPSIZE WHICH MEETS STABILITY CRITERION OF THE SINK & SOURCE TERM
 = 0.1000E+31(WHEN MIN. R.F.=1)  AT K=   0, I=   0, J=   0

 MAXIMUM STEPSIZE WHICH MEETS STABILITY CRITERION OF THE DISPERSION TERM
 = 0.5608E-02(WHEN MIN. R.F.=1)  AT K=   3, I=   2, J=  32
     1 CALLS TO GCG PACKAGE FOR TRANSPORT TIME STEP  11 IN FLOW TIME STEP  48 STRESS PERIOD   2
    13 TOTAL ITERATIONS
 
 SOLVING FOR HEAD 
 FLOW MODEL IS TRANSIENT
 FLOW MODEL CONTAINS CONSTANT-HEAD CELLS


 MAXIMUM STEPSIZE DURING WHICH ANY PARTICLE CANNOT MOVE MORE THAN ONE CELL
 = 0.1188    (WHEN MIN. R.F.=1)  AT K=   3, I=   2, J=  33

 MAXIMUM STEPSIZE WHICH MEETS STABILITY CRITERION OF THE ADVECTION TERM
 (FOR PURE FINITE-DIFFERENCE OPTION, MIXELM=0) 
 = 0.8141E-01(WHEN MIN. R.F.=1)  AT K=   3, I=   2, J=  32


 TOTAL NUMBER OF POINT SOURCES/SINKS PRESENT IN THE FLOW MODEL =   240

 MAXIMUM STEPSIZE WHICH MEETS STABILITY CRITERION OF THE SINK & SOURCE TERM
 = 0.1000E+31(WHEN MIN. R.F.=1)  AT K=   0, I=   0, J=   0

 MAXIMUM STEPSIZE WHICH MEETS STABILITY CRITERION OF THE DISPERSION TERM
 = 0.5608E-02(WHEN MIN. R.F.=1)  AT K=   3, I=   2, J=  32
     1 CALLS TO GCG PACKAGE FOR TRANSPORT TIME STEP  12 IN FLOW TIME STEP  48 STRESS PERIOD   2
     7 TOTAL ITERATIONS
  MAXIMUM CONCENTRATION CHANGES FOR EACH ITERATION:
  MAX. CHANGE LAYER,ROW,COL MAX. CHANGE LAYER,ROW,COL MAX. CHANGE LAYER,ROW,COL MAX. CHANGE LAYER,ROW,COL MAX. CHANGE LAYER,ROW,COL
 ------------------------------------------------------------------------------------------------------------------------------------
   0.1774E-03 ( 13,  2, 60)  0.1647E-04 (  6,  2, 60)  0.2390E-05 (  5,  2, 57)  0.7151E-06 (  3,  2, 33)  0.3327E-06 (  4,  2, 33)
   0.1375E-06 (  3,  2, 33)  0.3858E-07 (  2,  2, 33)


                                          ================================================
                                                         FROM TIME =   49.000     TO    50.000    

 
 SOLVING FOR HEAD 
 FLOW MODEL IS TRANSIENT
 FLOW MODEL CONTAINS CONSTANT-HEAD CELLS


 MAXIMUM STEPSIZE DURING WHICH ANY PARTICLE CANNOT MOVE MORE THAN ONE CELL
 = 0.1188    (WHEN MIN. R.F.=1)  AT K=   3, I=   2, J=  33

 MAXIMUM STEPSIZE WHICH MEETS STABILITY CRITERION OF THE ADVECTION TERM
 (FOR PURE FINITE-DIFFERENCE OPTION, MIXELM=0) 
 = 0.8141E-01(WHEN MIN. R.F.=1)  AT K=   3, I=   2, J=  32


 TOTAL NUMBER OF POINT SOURCES/SINKS PRESENT IN THE FLOW MODEL =   240

 MAXIMUM STEPSIZE WHICH MEETS STABILITY CRITERION OF THE SINK & SOURCE TERM
 = 0.1000E+31(WHEN MIN. R.F.=1)  AT K=   0, I=   0, J=   0

 MAXIMUM STEPSIZE WHICH MEETS STABILITY CRITERION OF THE DISPERSION TERM
 = 0.5608E-02(WHEN MIN. R.F.=1)  AT K=   3, I=   2, J=  32


     1 CALLS TO GCG PACKAGE FOR TRANSPORT TIME STEP   1 IN FLOW TIME STEP  49 STRESS PERIOD   2
    13 TOTAL ITERATIONS

 NO OUTPUT CONTROL FOR STRESS PERIOD    2   TIME STEP  49
 
 SOLVING FOR HEAD 
 FLOW MODEL IS TRANSIENT
 FLOW MODEL CONTAINS CONSTANT-HEAD CELLS


 MAXIMUM STEPSIZE DURING WHICH ANY PARTICLE CANNOT MOVE MORE THAN ONE CELL
 = 0.1188    (WHEN MIN. R.F.=1)  AT K=   3, I=   2, J=  33

 MAXIMUM STEPSIZE WHICH MEETS STABILITY CRITERION OF THE ADVECTION TERM
 (FOR PURE FINITE-DIFFERENCE OPTION, MIXELM=0) 
 = 0.8141E-01(WHEN MIN. R.F.=1)  AT K=   3, I=   2, J=  32


 TOTAL NUMBER OF POINT SOURCES/SINKS PRESENT IN THE FLOW MODEL =   240

 MAXIMUM STEPSIZE WHICH MEETS STABILITY CRITERION OF THE SINK & SOURCE TERM
 = 0.1000E+31(WHEN MIN. R.F.=1)  AT K=   0, I=   0, J=   0

 MAXIMUM STEPSIZE WHICH MEETS STABILITY CRITERION OF THE DISPERSION TERM
 = 0.5608E-02(WHEN MIN. R.F.=1)  AT K=   3, I=   2, J=  32
     1 CALLS TO GCG PACKAGE FOR TRANSPORT TIME STEP   2 IN FLOW TIME STEP  49 STRESS PERIOD   2
    13 TOTAL ITERATIONS
 
 SOLVING FOR HEAD 
 FLOW MODEL IS TRANSIENT
 FLOW MODEL CONTAINS CONSTANT-HEAD CELLS


 MAXIMUM STEPSIZE DURING WHICH ANY PARTICLE CANNOT MOVE MORE THAN ONE CELL
 = 0.1188    (WHEN MIN. R.F.=1)  AT K=   3, I=   2, J=  33

 MAXIMUM STEPSIZE WHICH MEETS STABILITY CRITERION OF THE ADVECTION TERM
 (FOR PURE FINITE-DIFFERENCE OPTION, MIXELM=0) 
 = 0.8141E-01(WHEN MIN. R.F.=1)  AT K=   3, I=   2, J=  32


 TOTAL NUMBER OF POINT SOURCES/SINKS PRESENT IN THE FLOW MODEL =   240

 MAXIMUM STEPSIZE WHICH MEETS STABILITY CRITERION OF THE SINK & SOURCE TERM
 = 0.1000E+31(WHEN MIN. R.F.=1)  AT K=   0, I=   0, J=   0

 MAXIMUM STEPSIZE WHICH MEETS STABILITY CRITERION OF THE DISPERSION TERM
 = 0.5608E-02(WHEN MIN. R.F.=1)  AT K=   3, I=   2, J=  32
     1 CALLS TO GCG PACKAGE FOR TRANSPORT TIME STEP   3 IN FLOW TIME STEP  49 STRESS PERIOD   2
    13 TOTAL ITERATIONS
 
 SOLVING FOR HEAD 
 FLOW MODEL IS TRANSIENT
 FLOW MODEL CONTAINS CONSTANT-HEAD CELLS


 MAXIMUM STEPSIZE DURING WHICH ANY PARTICLE CANNOT MOVE MORE THAN ONE CELL
 = 0.1188    (WHEN MIN. R.F.=1)  AT K=   3, I=   2, J=  33

 MAXIMUM STEPSIZE WHICH MEETS STABILITY CRITERION OF THE ADVECTION TERM
 (FOR PURE FINITE-DIFFERENCE OPTION, MIXELM=0) 
 = 0.8141E-01(WHEN MIN. R.F.=1)  AT K=   3, I=   2, J=  32


 TOTAL NUMBER OF POINT SOURCES/SINKS PRESENT IN THE FLOW MODEL =   240

 MAXIMUM STEPSIZE WHICH MEETS STABILITY CRITERION OF THE SINK & SOURCE TERM
 = 0.1000E+31(WHEN MIN. R.F.=1)  AT K=   0, I=   0, J=   0

 MAXIMUM STEPSIZE WHICH MEETS STABILITY CRITERION OF THE DISPERSION TERM
 = 0.5608E-02(WHEN MIN. R.F.=1)  AT K=   3, I=   2, J=  32
     1 CALLS TO GCG PACKAGE FOR TRANSPORT TIME STEP   4 IN FLOW TIME STEP  49 STRESS PERIOD   2
    13 TOTAL ITERATIONS
 
 SOLVING FOR HEAD 
 FLOW MODEL IS TRANSIENT
 FLOW MODEL CONTAINS CONSTANT-HEAD CELLS


 MAXIMUM STEPSIZE DURING WHICH ANY PARTICLE CANNOT MOVE MORE THAN ONE CELL
 = 0.1188    (WHEN MIN. R.F.=1)  AT K=   3, I=   2, J=  33

 MAXIMUM STEPSIZE WHICH MEETS STABILITY CRITERION OF THE ADVECTION TERM
 (FOR PURE FINITE-DIFFERENCE OPTION, MIXELM=0) 
 = 0.8141E-01(WHEN MIN. R.F.=1)  AT K=   3, I=   2, J=  32


 TOTAL NUMBER OF POINT SOURCES/SINKS PRESENT IN THE FLOW MODEL =   240

 MAXIMUM STEPSIZE WHICH MEETS STABILITY CRITERION OF THE SINK & SOURCE TERM
 = 0.1000E+31(WHEN MIN. R.F.=1)  AT K=   0, I=   0, J=   0

 MAXIMUM STEPSIZE WHICH MEETS STABILITY CRITERION OF THE DISPERSION TERM
 = 0.5608E-02(WHEN MIN. R.F.=1)  AT K=   3, I=   2, J=  32
     1 CALLS TO GCG PACKAGE FOR TRANSPORT TIME STEP   5 IN FLOW TIME STEP  49 STRESS PERIOD   2
    13 TOTAL ITERATIONS
 
 SOLVING FOR HEAD 
 FLOW MODEL IS TRANSIENT
 FLOW MODEL CONTAINS CONSTANT-HEAD CELLS


 MAXIMUM STEPSIZE DURING WHICH ANY PARTICLE CANNOT MOVE MORE THAN ONE CELL
 = 0.1188    (WHEN MIN. R.F.=1)  AT K=   3, I=   2, J=  33

 MAXIMUM STEPSIZE WHICH MEETS STABILITY CRITERION OF THE ADVECTION TERM
 (FOR PURE FINITE-DIFFERENCE OPTION, MIXELM=0) 
 = 0.8141E-01(WHEN MIN. R.F.=1)  AT K=   3, I=   2, J=  32


 TOTAL NUMBER OF POINT SOURCES/SINKS PRESENT IN THE FLOW MODEL =   240

 MAXIMUM STEPSIZE WHICH MEETS STABILITY CRITERION OF THE SINK & SOURCE TERM
 = 0.1000E+31(WHEN MIN. R.F.=1)  AT K=   0, I=   0, J=   0

 MAXIMUM STEPSIZE WHICH MEETS STABILITY CRITERION OF THE DISPERSION TERM
 = 0.5608E-02(WHEN MIN. R.F.=1)  AT K=   3, I=   2, J=  32
     1 CALLS TO GCG PACKAGE FOR TRANSPORT TIME STEP   6 IN FLOW TIME STEP  49 STRESS PERIOD   2
    13 TOTAL ITERATIONS
 
 SOLVING FOR HEAD 
 FLOW MODEL IS TRANSIENT
 FLOW MODEL CONTAINS CONSTANT-HEAD CELLS


 MAXIMUM STEPSIZE DURING WHICH ANY PARTICLE CANNOT MOVE MORE THAN ONE CELL
 = 0.1188    (WHEN MIN. R.F.=1)  AT K=   3, I=   2, J=  33

 MAXIMUM STEPSIZE WHICH MEETS STABILITY CRITERION OF THE ADVECTION TERM
 (FOR PURE FINITE-DIFFERENCE OPTION, MIXELM=0) 
 = 0.8141E-01(WHEN MIN. R.F.=1)  AT K=   3, I=   2, J=  32


 TOTAL NUMBER OF POINT SOURCES/SINKS PRESENT IN THE FLOW MODEL =   240

 MAXIMUM STEPSIZE WHICH MEETS STABILITY CRITERION OF THE SINK & SOURCE TERM
 = 0.1000E+31(WHEN MIN. R.F.=1)  AT K=   0, I=   0, J=   0

 MAXIMUM STEPSIZE WHICH MEETS STABILITY CRITERION OF THE DISPERSION TERM
 = 0.5608E-02(WHEN MIN. R.F.=1)  AT K=   3, I=   2, J=  32
     1 CALLS TO GCG PACKAGE FOR TRANSPORT TIME STEP   7 IN FLOW TIME STEP  49 STRESS PERIOD   2
    13 TOTAL ITERATIONS
 
 SOLVING FOR HEAD 
 FLOW MODEL IS TRANSIENT
 FLOW MODEL CONTAINS CONSTANT-HEAD CELLS


 MAXIMUM STEPSIZE DURING WHICH ANY PARTICLE CANNOT MOVE MORE THAN ONE CELL
 = 0.1188    (WHEN MIN. R.F.=1)  AT K=   3, I=   2, J=  33

 MAXIMUM STEPSIZE WHICH MEETS STABILITY CRITERION OF THE ADVECTION TERM
 (FOR PURE FINITE-DIFFERENCE OPTION, MIXELM=0) 
 = 0.8141E-01(WHEN MIN. R.F.=1)  AT K=   3, I=   2, J=  32


 TOTAL NUMBER OF POINT SOURCES/SINKS PRESENT IN THE FLOW MODEL =   240

 MAXIMUM STEPSIZE WHICH MEETS STABILITY CRITERION OF THE SINK & SOURCE TERM
 = 0.1000E+31(WHEN MIN. R.F.=1)  AT K=   0, I=   0, J=   0

 MAXIMUM STEPSIZE WHICH MEETS STABILITY CRITERION OF THE DISPERSION TERM
 = 0.5608E-02(WHEN MIN. R.F.=1)  AT K=   3, I=   2, J=  32
     1 CALLS TO GCG PACKAGE FOR TRANSPORT TIME STEP   8 IN FLOW TIME STEP  49 STRESS PERIOD   2
    13 TOTAL ITERATIONS
 
 SOLVING FOR HEAD 
 FLOW MODEL IS TRANSIENT
 FLOW MODEL CONTAINS CONSTANT-HEAD CELLS


 MAXIMUM STEPSIZE DURING WHICH ANY PARTICLE CANNOT MOVE MORE THAN ONE CELL
 = 0.1188    (WHEN MIN. R.F.=1)  AT K=   3, I=   2, J=  33

 MAXIMUM STEPSIZE WHICH MEETS STABILITY CRITERION OF THE ADVECTION TERM
 (FOR PURE FINITE-DIFFERENCE OPTION, MIXELM=0) 
 = 0.8141E-01(WHEN MIN. R.F.=1)  AT K=   3, I=   2, J=  32


 TOTAL NUMBER OF POINT SOURCES/SINKS PRESENT IN THE FLOW MODEL =   240

 MAXIMUM STEPSIZE WHICH MEETS STABILITY CRITERION OF THE SINK & SOURCE TERM
 = 0.1000E+31(WHEN MIN. R.F.=1)  AT K=   0, I=   0, J=   0

 MAXIMUM STEPSIZE WHICH MEETS STABILITY CRITERION OF THE DISPERSION TERM
 = 0.5608E-02(WHEN MIN. R.F.=1)  AT K=   3, I=   2, J=  32
     1 CALLS TO GCG PACKAGE FOR TRANSPORT TIME STEP   9 IN FLOW TIME STEP  49 STRESS PERIOD   2
    13 TOTAL ITERATIONS
 
 SOLVING FOR HEAD 
 FLOW MODEL IS TRANSIENT
 FLOW MODEL CONTAINS CONSTANT-HEAD CELLS


 MAXIMUM STEPSIZE DURING WHICH ANY PARTICLE CANNOT MOVE MORE THAN ONE CELL
 = 0.1188    (WHEN MIN. R.F.=1)  AT K=   3, I=   2, J=  33

 MAXIMUM STEPSIZE WHICH MEETS STABILITY CRITERION OF THE ADVECTION TERM
 (FOR PURE FINITE-DIFFERENCE OPTION, MIXELM=0) 
 = 0.8141E-01(WHEN MIN. R.F.=1)  AT K=   3, I=   2, J=  32


 TOTAL NUMBER OF POINT SOURCES/SINKS PRESENT IN THE FLOW MODEL =   240

 MAXIMUM STEPSIZE WHICH MEETS STABILITY CRITERION OF THE SINK & SOURCE TERM
 = 0.1000E+31(WHEN MIN. R.F.=1)  AT K=   0, I=   0, J=   0

 MAXIMUM STEPSIZE WHICH MEETS STABILITY CRITERION OF THE DISPERSION TERM
 = 0.5608E-02(WHEN MIN. R.F.=1)  AT K=   3, I=   2, J=  32
     1 CALLS TO GCG PACKAGE FOR TRANSPORT TIME STEP  10 IN FLOW TIME STEP  49 STRESS PERIOD   2
    13 TOTAL ITERATIONS



 >>>>>>>>>>>>>>>>>>>>>>>>>>>>>>>>>>>>>>>>>>>>>>>>>>>>>>>FOR COMPONENT NO. 01<<<<<<<<<<<<<<<<<<<<<<<<<<<<<<<<<<<<<<<<<<<<<<<<<<<<<<<


                                            -------------------------------------------
                                                      TRANSPORT STEP NO.   10
                                            -------------------------------------------

 TOTAL ELAPSED TIME SINCE BEGINNING OF SIMULATION =   49.89092    D   
 .....................................................................

                     CUMULATIVE MASS BUDGETS AT END OF TRANSPORT STEP   10, TIME STEP   49, STRESS PERIOD    2
                     ------------------------------------------------------------------------------------------

                                                             IN                           OUT
                                                      ----------------             ----------------
                               CONSTANT CONCENTRATION:    8638.859                   -4253.893    
                                        CONSTANT HEAD:    0.000000                    0.000000    
                               MASS STOR (FLOW MODEL):   0.1256984E-01              -0.3301153E-02
                                MASS STORAGE (SOLUTE):    1.246270                   -4386.224    
                            ---------------------------------------------------------------------------
                                              [TOTAL]:    8640.118     KG            -8640.120     KG  

                                                          NET (IN - OUT):  -0.2756444E-02
                                                   DISCREPANCY (PERCENT):  -0.3190285E-04
 
 SOLVING FOR HEAD 
 FLOW MODEL IS TRANSIENT
 FLOW MODEL CONTAINS CONSTANT-HEAD CELLS


 MAXIMUM STEPSIZE DURING WHICH ANY PARTICLE CANNOT MOVE MORE THAN ONE CELL
 = 0.1188    (WHEN MIN. R.F.=1)  AT K=   3, I=   2, J=  33

 MAXIMUM STEPSIZE WHICH MEETS STABILITY CRITERION OF THE ADVECTION TERM
 (FOR PURE FINITE-DIFFERENCE OPTION, MIXELM=0) 
 = 0.8141E-01(WHEN MIN. R.F.=1)  AT K=   3, I=   2, J=  32


 TOTAL NUMBER OF POINT SOURCES/SINKS PRESENT IN THE FLOW MODEL =   240

 MAXIMUM STEPSIZE WHICH MEETS STABILITY CRITERION OF THE SINK & SOURCE TERM
 = 0.1000E+31(WHEN MIN. R.F.=1)  AT K=   0, I=   0, J=   0

 MAXIMUM STEPSIZE WHICH MEETS STABILITY CRITERION OF THE DISPERSION TERM
 = 0.5608E-02(WHEN MIN. R.F.=1)  AT K=   3, I=   2, J=  32
     1 CALLS TO GCG PACKAGE FOR TRANSPORT TIME STEP  11 IN FLOW TIME STEP  49 STRESS PERIOD   2
    13 TOTAL ITERATIONS
 
 SOLVING FOR HEAD 
 FLOW MODEL IS TRANSIENT
 FLOW MODEL CONTAINS CONSTANT-HEAD CELLS


 MAXIMUM STEPSIZE DURING WHICH ANY PARTICLE CANNOT MOVE MORE THAN ONE CELL
 = 0.1188    (WHEN MIN. R.F.=1)  AT K=   3, I=   2, J=  33

 MAXIMUM STEPSIZE WHICH MEETS STABILITY CRITERION OF THE ADVECTION TERM
 (FOR PURE FINITE-DIFFERENCE OPTION, MIXELM=0) 
 = 0.8141E-01(WHEN MIN. R.F.=1)  AT K=   3, I=   2, J=  32


 TOTAL NUMBER OF POINT SOURCES/SINKS PRESENT IN THE FLOW MODEL =   240

 MAXIMUM STEPSIZE WHICH MEETS STABILITY CRITERION OF THE SINK & SOURCE TERM
 = 0.1000E+31(WHEN MIN. R.F.=1)  AT K=   0, I=   0, J=   0

 MAXIMUM STEPSIZE WHICH MEETS STABILITY CRITERION OF THE DISPERSION TERM
 = 0.5607E-02(WHEN MIN. R.F.=1)  AT K=   3, I=   2, J=  32
     1 CALLS TO GCG PACKAGE FOR TRANSPORT TIME STEP  12 IN FLOW TIME STEP  49 STRESS PERIOD   2
     7 TOTAL ITERATIONS
  MAXIMUM CONCENTRATION CHANGES FOR EACH ITERATION:
  MAX. CHANGE LAYER,ROW,COL MAX. CHANGE LAYER,ROW,COL MAX. CHANGE LAYER,ROW,COL MAX. CHANGE LAYER,ROW,COL MAX. CHANGE LAYER,ROW,COL
 ------------------------------------------------------------------------------------------------------------------------------------
   0.1741E-03 ( 13,  2, 60)  0.1586E-04 (  6,  2, 60)  0.2304E-05 (  5,  2, 57)  0.6817E-06 (  3,  2, 33)  0.3179E-06 (  4,  2, 33)
   0.1316E-06 (  3,  2, 33)  0.3704E-07 (  2,  2, 33)


                                          ================================================
                                                         FROM TIME =   50.000     TO    51.000    

 
 SOLVING FOR HEAD 
 FLOW MODEL IS TRANSIENT
 FLOW MODEL CONTAINS CONSTANT-HEAD CELLS


 MAXIMUM STEPSIZE DURING WHICH ANY PARTICLE CANNOT MOVE MORE THAN ONE CELL
 = 0.1188    (WHEN MIN. R.F.=1)  AT K=   3, I=   2, J=  33

 MAXIMUM STEPSIZE WHICH MEETS STABILITY CRITERION OF THE ADVECTION TERM
 (FOR PURE FINITE-DIFFERENCE OPTION, MIXELM=0) 
 = 0.8141E-01(WHEN MIN. R.F.=1)  AT K=   3, I=   2, J=  32


 TOTAL NUMBER OF POINT SOURCES/SINKS PRESENT IN THE FLOW MODEL =   240

 MAXIMUM STEPSIZE WHICH MEETS STABILITY CRITERION OF THE SINK & SOURCE TERM
 = 0.1000E+31(WHEN MIN. R.F.=1)  AT K=   0, I=   0, J=   0

 MAXIMUM STEPSIZE WHICH MEETS STABILITY CRITERION OF THE DISPERSION TERM
 = 0.5607E-02(WHEN MIN. R.F.=1)  AT K=   3, I=   2, J=  32


     1 CALLS TO GCG PACKAGE FOR TRANSPORT TIME STEP   1 IN FLOW TIME STEP  50 STRESS PERIOD   2
    13 TOTAL ITERATIONS

 NO OUTPUT CONTROL FOR STRESS PERIOD    2   TIME STEP  50
 
 SOLVING FOR HEAD 
 FLOW MODEL IS TRANSIENT
 FLOW MODEL CONTAINS CONSTANT-HEAD CELLS


 MAXIMUM STEPSIZE DURING WHICH ANY PARTICLE CANNOT MOVE MORE THAN ONE CELL
 = 0.1188    (WHEN MIN. R.F.=1)  AT K=   3, I=   2, J=  33

 MAXIMUM STEPSIZE WHICH MEETS STABILITY CRITERION OF THE ADVECTION TERM
 (FOR PURE FINITE-DIFFERENCE OPTION, MIXELM=0) 
 = 0.8141E-01(WHEN MIN. R.F.=1)  AT K=   3, I=   2, J=  32


 TOTAL NUMBER OF POINT SOURCES/SINKS PRESENT IN THE FLOW MODEL =   240

 MAXIMUM STEPSIZE WHICH MEETS STABILITY CRITERION OF THE SINK & SOURCE TERM
 = 0.1000E+31(WHEN MIN. R.F.=1)  AT K=   0, I=   0, J=   0

 MAXIMUM STEPSIZE WHICH MEETS STABILITY CRITERION OF THE DISPERSION TERM
 = 0.5607E-02(WHEN MIN. R.F.=1)  AT K=   3, I=   2, J=  32
     1 CALLS TO GCG PACKAGE FOR TRANSPORT TIME STEP   2 IN FLOW TIME STEP  50 STRESS PERIOD   2
    13 TOTAL ITERATIONS
 
 SOLVING FOR HEAD 
 FLOW MODEL IS TRANSIENT
 FLOW MODEL CONTAINS CONSTANT-HEAD CELLS


 MAXIMUM STEPSIZE DURING WHICH ANY PARTICLE CANNOT MOVE MORE THAN ONE CELL
 = 0.1188    (WHEN MIN. R.F.=1)  AT K=   3, I=   2, J=  33

 MAXIMUM STEPSIZE WHICH MEETS STABILITY CRITERION OF THE ADVECTION TERM
 (FOR PURE FINITE-DIFFERENCE OPTION, MIXELM=0) 
 = 0.8141E-01(WHEN MIN. R.F.=1)  AT K=   3, I=   2, J=  32


 TOTAL NUMBER OF POINT SOURCES/SINKS PRESENT IN THE FLOW MODEL =   240

 MAXIMUM STEPSIZE WHICH MEETS STABILITY CRITERION OF THE SINK & SOURCE TERM
 = 0.1000E+31(WHEN MIN. R.F.=1)  AT K=   0, I=   0, J=   0

 MAXIMUM STEPSIZE WHICH MEETS STABILITY CRITERION OF THE DISPERSION TERM
 = 0.5607E-02(WHEN MIN. R.F.=1)  AT K=   3, I=   2, J=  32
     1 CALLS TO GCG PACKAGE FOR TRANSPORT TIME STEP   3 IN FLOW TIME STEP  50 STRESS PERIOD   2
    13 TOTAL ITERATIONS
 
 SOLVING FOR HEAD 
 FLOW MODEL IS TRANSIENT
 FLOW MODEL CONTAINS CONSTANT-HEAD CELLS


 MAXIMUM STEPSIZE DURING WHICH ANY PARTICLE CANNOT MOVE MORE THAN ONE CELL
 = 0.1188    (WHEN MIN. R.F.=1)  AT K=   3, I=   2, J=  33

 MAXIMUM STEPSIZE WHICH MEETS STABILITY CRITERION OF THE ADVECTION TERM
 (FOR PURE FINITE-DIFFERENCE OPTION, MIXELM=0) 
 = 0.8141E-01(WHEN MIN. R.F.=1)  AT K=   3, I=   2, J=  32


 TOTAL NUMBER OF POINT SOURCES/SINKS PRESENT IN THE FLOW MODEL =   240

 MAXIMUM STEPSIZE WHICH MEETS STABILITY CRITERION OF THE SINK & SOURCE TERM
 = 0.1000E+31(WHEN MIN. R.F.=1)  AT K=   0, I=   0, J=   0

 MAXIMUM STEPSIZE WHICH MEETS STABILITY CRITERION OF THE DISPERSION TERM
 = 0.5607E-02(WHEN MIN. R.F.=1)  AT K=   3, I=   2, J=  32
     1 CALLS TO GCG PACKAGE FOR TRANSPORT TIME STEP   4 IN FLOW TIME STEP  50 STRESS PERIOD   2
    13 TOTAL ITERATIONS
 
 SOLVING FOR HEAD 
 FLOW MODEL IS TRANSIENT
 FLOW MODEL CONTAINS CONSTANT-HEAD CELLS


 MAXIMUM STEPSIZE DURING WHICH ANY PARTICLE CANNOT MOVE MORE THAN ONE CELL
 = 0.1188    (WHEN MIN. R.F.=1)  AT K=   3, I=   2, J=  33

 MAXIMUM STEPSIZE WHICH MEETS STABILITY CRITERION OF THE ADVECTION TERM
 (FOR PURE FINITE-DIFFERENCE OPTION, MIXELM=0) 
 = 0.8141E-01(WHEN MIN. R.F.=1)  AT K=   3, I=   2, J=  32


 TOTAL NUMBER OF POINT SOURCES/SINKS PRESENT IN THE FLOW MODEL =   240

 MAXIMUM STEPSIZE WHICH MEETS STABILITY CRITERION OF THE SINK & SOURCE TERM
 = 0.1000E+31(WHEN MIN. R.F.=1)  AT K=   0, I=   0, J=   0

 MAXIMUM STEPSIZE WHICH MEETS STABILITY CRITERION OF THE DISPERSION TERM
 = 0.5607E-02(WHEN MIN. R.F.=1)  AT K=   3, I=   2, J=  32
     1 CALLS TO GCG PACKAGE FOR TRANSPORT TIME STEP   5 IN FLOW TIME STEP  50 STRESS PERIOD   2
    13 TOTAL ITERATIONS
 
 SOLVING FOR HEAD 
 FLOW MODEL IS TRANSIENT
 FLOW MODEL CONTAINS CONSTANT-HEAD CELLS


 MAXIMUM STEPSIZE DURING WHICH ANY PARTICLE CANNOT MOVE MORE THAN ONE CELL
 = 0.1188    (WHEN MIN. R.F.=1)  AT K=   3, I=   2, J=  33

 MAXIMUM STEPSIZE WHICH MEETS STABILITY CRITERION OF THE ADVECTION TERM
 (FOR PURE FINITE-DIFFERENCE OPTION, MIXELM=0) 
 = 0.8141E-01(WHEN MIN. R.F.=1)  AT K=   3, I=   2, J=  32


 TOTAL NUMBER OF POINT SOURCES/SINKS PRESENT IN THE FLOW MODEL =   240

 MAXIMUM STEPSIZE WHICH MEETS STABILITY CRITERION OF THE SINK & SOURCE TERM
 = 0.1000E+31(WHEN MIN. R.F.=1)  AT K=   0, I=   0, J=   0

 MAXIMUM STEPSIZE WHICH MEETS STABILITY CRITERION OF THE DISPERSION TERM
 = 0.5607E-02(WHEN MIN. R.F.=1)  AT K=   3, I=   2, J=  32
     1 CALLS TO GCG PACKAGE FOR TRANSPORT TIME STEP   6 IN FLOW TIME STEP  50 STRESS PERIOD   2
    13 TOTAL ITERATIONS
 
 SOLVING FOR HEAD 
 FLOW MODEL IS TRANSIENT
 FLOW MODEL CONTAINS CONSTANT-HEAD CELLS


 MAXIMUM STEPSIZE DURING WHICH ANY PARTICLE CANNOT MOVE MORE THAN ONE CELL
 = 0.1188    (WHEN MIN. R.F.=1)  AT K=   3, I=   2, J=  33

 MAXIMUM STEPSIZE WHICH MEETS STABILITY CRITERION OF THE ADVECTION TERM
 (FOR PURE FINITE-DIFFERENCE OPTION, MIXELM=0) 
 = 0.8141E-01(WHEN MIN. R.F.=1)  AT K=   3, I=   2, J=  32


 TOTAL NUMBER OF POINT SOURCES/SINKS PRESENT IN THE FLOW MODEL =   240

 MAXIMUM STEPSIZE WHICH MEETS STABILITY CRITERION OF THE SINK & SOURCE TERM
 = 0.1000E+31(WHEN MIN. R.F.=1)  AT K=   0, I=   0, J=   0

 MAXIMUM STEPSIZE WHICH MEETS STABILITY CRITERION OF THE DISPERSION TERM
 = 0.5607E-02(WHEN MIN. R.F.=1)  AT K=   3, I=   2, J=  32
     1 CALLS TO GCG PACKAGE FOR TRANSPORT TIME STEP   7 IN FLOW TIME STEP  50 STRESS PERIOD   2
    13 TOTAL ITERATIONS
 
 SOLVING FOR HEAD 
 FLOW MODEL IS TRANSIENT
 FLOW MODEL CONTAINS CONSTANT-HEAD CELLS


 MAXIMUM STEPSIZE DURING WHICH ANY PARTICLE CANNOT MOVE MORE THAN ONE CELL
 = 0.1188    (WHEN MIN. R.F.=1)  AT K=   3, I=   2, J=  33

 MAXIMUM STEPSIZE WHICH MEETS STABILITY CRITERION OF THE ADVECTION TERM
 (FOR PURE FINITE-DIFFERENCE OPTION, MIXELM=0) 
 = 0.8141E-01(WHEN MIN. R.F.=1)  AT K=   3, I=   2, J=  32


 TOTAL NUMBER OF POINT SOURCES/SINKS PRESENT IN THE FLOW MODEL =   240

 MAXIMUM STEPSIZE WHICH MEETS STABILITY CRITERION OF THE SINK & SOURCE TERM
 = 0.1000E+31(WHEN MIN. R.F.=1)  AT K=   0, I=   0, J=   0

 MAXIMUM STEPSIZE WHICH MEETS STABILITY CRITERION OF THE DISPERSION TERM
 = 0.5607E-02(WHEN MIN. R.F.=1)  AT K=   3, I=   2, J=  32
     1 CALLS TO GCG PACKAGE FOR TRANSPORT TIME STEP   8 IN FLOW TIME STEP  50 STRESS PERIOD   2
    13 TOTAL ITERATIONS
 
 SOLVING FOR HEAD 
 FLOW MODEL IS TRANSIENT
 FLOW MODEL CONTAINS CONSTANT-HEAD CELLS


 MAXIMUM STEPSIZE DURING WHICH ANY PARTICLE CANNOT MOVE MORE THAN ONE CELL
 = 0.1188    (WHEN MIN. R.F.=1)  AT K=   3, I=   2, J=  33

 MAXIMUM STEPSIZE WHICH MEETS STABILITY CRITERION OF THE ADVECTION TERM
 (FOR PURE FINITE-DIFFERENCE OPTION, MIXELM=0) 
 = 0.8141E-01(WHEN MIN. R.F.=1)  AT K=   3, I=   2, J=  32


 TOTAL NUMBER OF POINT SOURCES/SINKS PRESENT IN THE FLOW MODEL =   240

 MAXIMUM STEPSIZE WHICH MEETS STABILITY CRITERION OF THE SINK & SOURCE TERM
 = 0.1000E+31(WHEN MIN. R.F.=1)  AT K=   0, I=   0, J=   0

 MAXIMUM STEPSIZE WHICH MEETS STABILITY CRITERION OF THE DISPERSION TERM
 = 0.5607E-02(WHEN MIN. R.F.=1)  AT K=   3, I=   2, J=  32
     1 CALLS TO GCG PACKAGE FOR TRANSPORT TIME STEP   9 IN FLOW TIME STEP  50 STRESS PERIOD   2
    13 TOTAL ITERATIONS
 
 SOLVING FOR HEAD 
 FLOW MODEL IS TRANSIENT
 FLOW MODEL CONTAINS CONSTANT-HEAD CELLS


 MAXIMUM STEPSIZE DURING WHICH ANY PARTICLE CANNOT MOVE MORE THAN ONE CELL
 = 0.1188    (WHEN MIN. R.F.=1)  AT K=   3, I=   2, J=  33

 MAXIMUM STEPSIZE WHICH MEETS STABILITY CRITERION OF THE ADVECTION TERM
 (FOR PURE FINITE-DIFFERENCE OPTION, MIXELM=0) 
 = 0.8141E-01(WHEN MIN. R.F.=1)  AT K=   3, I=   2, J=  32


 TOTAL NUMBER OF POINT SOURCES/SINKS PRESENT IN THE FLOW MODEL =   240

 MAXIMUM STEPSIZE WHICH MEETS STABILITY CRITERION OF THE SINK & SOURCE TERM
 = 0.1000E+31(WHEN MIN. R.F.=1)  AT K=   0, I=   0, J=   0

 MAXIMUM STEPSIZE WHICH MEETS STABILITY CRITERION OF THE DISPERSION TERM
 = 0.5607E-02(WHEN MIN. R.F.=1)  AT K=   3, I=   2, J=  32
     1 CALLS TO GCG PACKAGE FOR TRANSPORT TIME STEP  10 IN FLOW TIME STEP  50 STRESS PERIOD   2
    13 TOTAL ITERATIONS



 >>>>>>>>>>>>>>>>>>>>>>>>>>>>>>>>>>>>>>>>>>>>>>>>>>>>>>>FOR COMPONENT NO. 01<<<<<<<<<<<<<<<<<<<<<<<<<<<<<<<<<<<<<<<<<<<<<<<<<<<<<<<


                                            -------------------------------------------
                                                      TRANSPORT STEP NO.   10
                                            -------------------------------------------

 TOTAL ELAPSED TIME SINCE BEGINNING OF SIMULATION =   50.89089    D   
 .....................................................................

                     CUMULATIVE MASS BUDGETS AT END OF TRANSPORT STEP   10, TIME STEP   50, STRESS PERIOD    2
                     ------------------------------------------------------------------------------------------

                                                             IN                           OUT
                                                      ----------------             ----------------
                               CONSTANT CONCENTRATION:    8752.138                   -4346.164    
                                        CONSTANT HEAD:    0.000000                    0.000000    
                               MASS STOR (FLOW MODEL):   0.1258843E-01              -0.3306916E-02
                                MASS STORAGE (SOLUTE):    1.427980                   -4407.413    
                            ---------------------------------------------------------------------------
                                              [TOTAL]:    8753.578     KG            -8753.581     KG  

                                                          NET (IN - OUT):  -0.2777942E-02
                                                   DISCREPANCY (PERCENT):  -0.3173492E-04
 
 SOLVING FOR HEAD 
 FLOW MODEL IS TRANSIENT
 FLOW MODEL CONTAINS CONSTANT-HEAD CELLS


 MAXIMUM STEPSIZE DURING WHICH ANY PARTICLE CANNOT MOVE MORE THAN ONE CELL
 = 0.1188    (WHEN MIN. R.F.=1)  AT K=   3, I=   2, J=  33

 MAXIMUM STEPSIZE WHICH MEETS STABILITY CRITERION OF THE ADVECTION TERM
 (FOR PURE FINITE-DIFFERENCE OPTION, MIXELM=0) 
 = 0.8141E-01(WHEN MIN. R.F.=1)  AT K=   3, I=   2, J=  32


 TOTAL NUMBER OF POINT SOURCES/SINKS PRESENT IN THE FLOW MODEL =   240

 MAXIMUM STEPSIZE WHICH MEETS STABILITY CRITERION OF THE SINK & SOURCE TERM
 = 0.1000E+31(WHEN MIN. R.F.=1)  AT K=   0, I=   0, J=   0

 MAXIMUM STEPSIZE WHICH MEETS STABILITY CRITERION OF THE DISPERSION TERM
 = 0.5607E-02(WHEN MIN. R.F.=1)  AT K=   3, I=   2, J=  32
     1 CALLS TO GCG PACKAGE FOR TRANSPORT TIME STEP  11 IN FLOW TIME STEP  50 STRESS PERIOD   2
    13 TOTAL ITERATIONS
 
 SOLVING FOR HEAD 
 FLOW MODEL IS TRANSIENT
 FLOW MODEL CONTAINS CONSTANT-HEAD CELLS


 MAXIMUM STEPSIZE DURING WHICH ANY PARTICLE CANNOT MOVE MORE THAN ONE CELL
 = 0.1188    (WHEN MIN. R.F.=1)  AT K=   3, I=   2, J=  33

 MAXIMUM STEPSIZE WHICH MEETS STABILITY CRITERION OF THE ADVECTION TERM
 (FOR PURE FINITE-DIFFERENCE OPTION, MIXELM=0) 
 = 0.8141E-01(WHEN MIN. R.F.=1)  AT K=   3, I=   2, J=  32


 TOTAL NUMBER OF POINT SOURCES/SINKS PRESENT IN THE FLOW MODEL =   240

 MAXIMUM STEPSIZE WHICH MEETS STABILITY CRITERION OF THE SINK & SOURCE TERM
 = 0.1000E+31(WHEN MIN. R.F.=1)  AT K=   0, I=   0, J=   0

 MAXIMUM STEPSIZE WHICH MEETS STABILITY CRITERION OF THE DISPERSION TERM
 = 0.5607E-02(WHEN MIN. R.F.=1)  AT K=   3, I=   2, J=  32
     1 CALLS TO GCG PACKAGE FOR TRANSPORT TIME STEP  12 IN FLOW TIME STEP  50 STRESS PERIOD   2
     7 TOTAL ITERATIONS
  MAXIMUM CONCENTRATION CHANGES FOR EACH ITERATION:
  MAX. CHANGE LAYER,ROW,COL MAX. CHANGE LAYER,ROW,COL MAX. CHANGE LAYER,ROW,COL MAX. CHANGE LAYER,ROW,COL MAX. CHANGE LAYER,ROW,COL
 ------------------------------------------------------------------------------------------------------------------------------------
   0.1709E-03 ( 13,  2, 60)  0.1527E-04 (  6,  2, 60)  0.2221E-05 (  5,  2, 57)  0.6495E-06 (  3,  2, 33)  0.3036E-06 (  4,  2, 33)
   0.1259E-06 (  3,  2, 33)  0.3555E-07 (  2,  2, 33)


                                          ================================================
                                                         FROM TIME =   51.000     TO    52.000    

 
 SOLVING FOR HEAD 
 FLOW MODEL IS TRANSIENT
 FLOW MODEL CONTAINS CONSTANT-HEAD CELLS


 MAXIMUM STEPSIZE DURING WHICH ANY PARTICLE CANNOT MOVE MORE THAN ONE CELL
 = 0.1188    (WHEN MIN. R.F.=1)  AT K=   3, I=   2, J=  33

 MAXIMUM STEPSIZE WHICH MEETS STABILITY CRITERION OF THE ADVECTION TERM
 (FOR PURE FINITE-DIFFERENCE OPTION, MIXELM=0) 
 = 0.8141E-01(WHEN MIN. R.F.=1)  AT K=   3, I=   2, J=  32


 TOTAL NUMBER OF POINT SOURCES/SINKS PRESENT IN THE FLOW MODEL =   240

 MAXIMUM STEPSIZE WHICH MEETS STABILITY CRITERION OF THE SINK & SOURCE TERM
 = 0.1000E+31(WHEN MIN. R.F.=1)  AT K=   0, I=   0, J=   0

 MAXIMUM STEPSIZE WHICH MEETS STABILITY CRITERION OF THE DISPERSION TERM
 = 0.5607E-02(WHEN MIN. R.F.=1)  AT K=   3, I=   2, J=  32


     1 CALLS TO GCG PACKAGE FOR TRANSPORT TIME STEP   1 IN FLOW TIME STEP  51 STRESS PERIOD   2
    13 TOTAL ITERATIONS

 NO OUTPUT CONTROL FOR STRESS PERIOD    2   TIME STEP  51
 
 SOLVING FOR HEAD 
 FLOW MODEL IS TRANSIENT
 FLOW MODEL CONTAINS CONSTANT-HEAD CELLS


 MAXIMUM STEPSIZE DURING WHICH ANY PARTICLE CANNOT MOVE MORE THAN ONE CELL
 = 0.1188    (WHEN MIN. R.F.=1)  AT K=   3, I=   2, J=  33

 MAXIMUM STEPSIZE WHICH MEETS STABILITY CRITERION OF THE ADVECTION TERM
 (FOR PURE FINITE-DIFFERENCE OPTION, MIXELM=0) 
 = 0.8141E-01(WHEN MIN. R.F.=1)  AT K=   3, I=   2, J=  32


 TOTAL NUMBER OF POINT SOURCES/SINKS PRESENT IN THE FLOW MODEL =   240

 MAXIMUM STEPSIZE WHICH MEETS STABILITY CRITERION OF THE SINK & SOURCE TERM
 = 0.1000E+31(WHEN MIN. R.F.=1)  AT K=   0, I=   0, J=   0

 MAXIMUM STEPSIZE WHICH MEETS STABILITY CRITERION OF THE DISPERSION TERM
 = 0.5607E-02(WHEN MIN. R.F.=1)  AT K=   3, I=   2, J=  32
     1 CALLS TO GCG PACKAGE FOR TRANSPORT TIME STEP   2 IN FLOW TIME STEP  51 STRESS PERIOD   2
    13 TOTAL ITERATIONS
 
 SOLVING FOR HEAD 
 FLOW MODEL IS TRANSIENT
 FLOW MODEL CONTAINS CONSTANT-HEAD CELLS


 MAXIMUM STEPSIZE DURING WHICH ANY PARTICLE CANNOT MOVE MORE THAN ONE CELL
 = 0.1188    (WHEN MIN. R.F.=1)  AT K=   3, I=   2, J=  33

 MAXIMUM STEPSIZE WHICH MEETS STABILITY CRITERION OF THE ADVECTION TERM
 (FOR PURE FINITE-DIFFERENCE OPTION, MIXELM=0) 
 = 0.8141E-01(WHEN MIN. R.F.=1)  AT K=   3, I=   2, J=  32


 TOTAL NUMBER OF POINT SOURCES/SINKS PRESENT IN THE FLOW MODEL =   240

 MAXIMUM STEPSIZE WHICH MEETS STABILITY CRITERION OF THE SINK & SOURCE TERM
 = 0.1000E+31(WHEN MIN. R.F.=1)  AT K=   0, I=   0, J=   0

 MAXIMUM STEPSIZE WHICH MEETS STABILITY CRITERION OF THE DISPERSION TERM
 = 0.5607E-02(WHEN MIN. R.F.=1)  AT K=   3, I=   2, J=  32
     1 CALLS TO GCG PACKAGE FOR TRANSPORT TIME STEP   3 IN FLOW TIME STEP  51 STRESS PERIOD   2
    13 TOTAL ITERATIONS
 
 SOLVING FOR HEAD 
 FLOW MODEL IS TRANSIENT
 FLOW MODEL CONTAINS CONSTANT-HEAD CELLS


 MAXIMUM STEPSIZE DURING WHICH ANY PARTICLE CANNOT MOVE MORE THAN ONE CELL
 = 0.1188    (WHEN MIN. R.F.=1)  AT K=   3, I=   2, J=  33

 MAXIMUM STEPSIZE WHICH MEETS STABILITY CRITERION OF THE ADVECTION TERM
 (FOR PURE FINITE-DIFFERENCE OPTION, MIXELM=0) 
 = 0.8141E-01(WHEN MIN. R.F.=1)  AT K=   3, I=   2, J=  32


 TOTAL NUMBER OF POINT SOURCES/SINKS PRESENT IN THE FLOW MODEL =   240

 MAXIMUM STEPSIZE WHICH MEETS STABILITY CRITERION OF THE SINK & SOURCE TERM
 = 0.1000E+31(WHEN MIN. R.F.=1)  AT K=   0, I=   0, J=   0

 MAXIMUM STEPSIZE WHICH MEETS STABILITY CRITERION OF THE DISPERSION TERM
 = 0.5607E-02(WHEN MIN. R.F.=1)  AT K=   3, I=   2, J=  32
     1 CALLS TO GCG PACKAGE FOR TRANSPORT TIME STEP   4 IN FLOW TIME STEP  51 STRESS PERIOD   2
    13 TOTAL ITERATIONS
 
 SOLVING FOR HEAD 
 FLOW MODEL IS TRANSIENT
 FLOW MODEL CONTAINS CONSTANT-HEAD CELLS


 MAXIMUM STEPSIZE DURING WHICH ANY PARTICLE CANNOT MOVE MORE THAN ONE CELL
 = 0.1188    (WHEN MIN. R.F.=1)  AT K=   3, I=   2, J=  33

 MAXIMUM STEPSIZE WHICH MEETS STABILITY CRITERION OF THE ADVECTION TERM
 (FOR PURE FINITE-DIFFERENCE OPTION, MIXELM=0) 
 = 0.8141E-01(WHEN MIN. R.F.=1)  AT K=   3, I=   2, J=  32


 TOTAL NUMBER OF POINT SOURCES/SINKS PRESENT IN THE FLOW MODEL =   240

 MAXIMUM STEPSIZE WHICH MEETS STABILITY CRITERION OF THE SINK & SOURCE TERM
 = 0.1000E+31(WHEN MIN. R.F.=1)  AT K=   0, I=   0, J=   0

 MAXIMUM STEPSIZE WHICH MEETS STABILITY CRITERION OF THE DISPERSION TERM
 = 0.5607E-02(WHEN MIN. R.F.=1)  AT K=   3, I=   2, J=  32
     1 CALLS TO GCG PACKAGE FOR TRANSPORT TIME STEP   5 IN FLOW TIME STEP  51 STRESS PERIOD   2
    13 TOTAL ITERATIONS
 
 SOLVING FOR HEAD 
 FLOW MODEL IS TRANSIENT
 FLOW MODEL CONTAINS CONSTANT-HEAD CELLS


 MAXIMUM STEPSIZE DURING WHICH ANY PARTICLE CANNOT MOVE MORE THAN ONE CELL
 = 0.1188    (WHEN MIN. R.F.=1)  AT K=   3, I=   2, J=  33

 MAXIMUM STEPSIZE WHICH MEETS STABILITY CRITERION OF THE ADVECTION TERM
 (FOR PURE FINITE-DIFFERENCE OPTION, MIXELM=0) 
 = 0.8141E-01(WHEN MIN. R.F.=1)  AT K=   3, I=   2, J=  32


 TOTAL NUMBER OF POINT SOURCES/SINKS PRESENT IN THE FLOW MODEL =   240

 MAXIMUM STEPSIZE WHICH MEETS STABILITY CRITERION OF THE SINK & SOURCE TERM
 = 0.1000E+31(WHEN MIN. R.F.=1)  AT K=   0, I=   0, J=   0

 MAXIMUM STEPSIZE WHICH MEETS STABILITY CRITERION OF THE DISPERSION TERM
 = 0.5607E-02(WHEN MIN. R.F.=1)  AT K=   3, I=   2, J=  32
     1 CALLS TO GCG PACKAGE FOR TRANSPORT TIME STEP   6 IN FLOW TIME STEP  51 STRESS PERIOD   2
    13 TOTAL ITERATIONS
 
 SOLVING FOR HEAD 
 FLOW MODEL IS TRANSIENT
 FLOW MODEL CONTAINS CONSTANT-HEAD CELLS


 MAXIMUM STEPSIZE DURING WHICH ANY PARTICLE CANNOT MOVE MORE THAN ONE CELL
 = 0.1188    (WHEN MIN. R.F.=1)  AT K=   3, I=   2, J=  33

 MAXIMUM STEPSIZE WHICH MEETS STABILITY CRITERION OF THE ADVECTION TERM
 (FOR PURE FINITE-DIFFERENCE OPTION, MIXELM=0) 
 = 0.8141E-01(WHEN MIN. R.F.=1)  AT K=   3, I=   2, J=  32


 TOTAL NUMBER OF POINT SOURCES/SINKS PRESENT IN THE FLOW MODEL =   240

 MAXIMUM STEPSIZE WHICH MEETS STABILITY CRITERION OF THE SINK & SOURCE TERM
 = 0.1000E+31(WHEN MIN. R.F.=1)  AT K=   0, I=   0, J=   0

 MAXIMUM STEPSIZE WHICH MEETS STABILITY CRITERION OF THE DISPERSION TERM
 = 0.5607E-02(WHEN MIN. R.F.=1)  AT K=   3, I=   2, J=  32
     1 CALLS TO GCG PACKAGE FOR TRANSPORT TIME STEP   7 IN FLOW TIME STEP  51 STRESS PERIOD   2
    13 TOTAL ITERATIONS
 
 SOLVING FOR HEAD 
 FLOW MODEL IS TRANSIENT
 FLOW MODEL CONTAINS CONSTANT-HEAD CELLS


 MAXIMUM STEPSIZE DURING WHICH ANY PARTICLE CANNOT MOVE MORE THAN ONE CELL
 = 0.1188    (WHEN MIN. R.F.=1)  AT K=   3, I=   2, J=  33

 MAXIMUM STEPSIZE WHICH MEETS STABILITY CRITERION OF THE ADVECTION TERM
 (FOR PURE FINITE-DIFFERENCE OPTION, MIXELM=0) 
 = 0.8141E-01(WHEN MIN. R.F.=1)  AT K=   3, I=   2, J=  32


 TOTAL NUMBER OF POINT SOURCES/SINKS PRESENT IN THE FLOW MODEL =   240

 MAXIMUM STEPSIZE WHICH MEETS STABILITY CRITERION OF THE SINK & SOURCE TERM
 = 0.1000E+31(WHEN MIN. R.F.=1)  AT K=   0, I=   0, J=   0

 MAXIMUM STEPSIZE WHICH MEETS STABILITY CRITERION OF THE DISPERSION TERM
 = 0.5607E-02(WHEN MIN. R.F.=1)  AT K=   3, I=   2, J=  32
     1 CALLS TO GCG PACKAGE FOR TRANSPORT TIME STEP   8 IN FLOW TIME STEP  51 STRESS PERIOD   2
    13 TOTAL ITERATIONS
 
 SOLVING FOR HEAD 
 FLOW MODEL IS TRANSIENT
 FLOW MODEL CONTAINS CONSTANT-HEAD CELLS


 MAXIMUM STEPSIZE DURING WHICH ANY PARTICLE CANNOT MOVE MORE THAN ONE CELL
 = 0.1188    (WHEN MIN. R.F.=1)  AT K=   3, I=   2, J=  33

 MAXIMUM STEPSIZE WHICH MEETS STABILITY CRITERION OF THE ADVECTION TERM
 (FOR PURE FINITE-DIFFERENCE OPTION, MIXELM=0) 
 = 0.8141E-01(WHEN MIN. R.F.=1)  AT K=   3, I=   2, J=  32


 TOTAL NUMBER OF POINT SOURCES/SINKS PRESENT IN THE FLOW MODEL =   240

 MAXIMUM STEPSIZE WHICH MEETS STABILITY CRITERION OF THE SINK & SOURCE TERM
 = 0.1000E+31(WHEN MIN. R.F.=1)  AT K=   0, I=   0, J=   0

 MAXIMUM STEPSIZE WHICH MEETS STABILITY CRITERION OF THE DISPERSION TERM
 = 0.5607E-02(WHEN MIN. R.F.=1)  AT K=   3, I=   2, J=  32
     1 CALLS TO GCG PACKAGE FOR TRANSPORT TIME STEP   9 IN FLOW TIME STEP  51 STRESS PERIOD   2
    13 TOTAL ITERATIONS
 
 SOLVING FOR HEAD 
 FLOW MODEL IS TRANSIENT
 FLOW MODEL CONTAINS CONSTANT-HEAD CELLS


 MAXIMUM STEPSIZE DURING WHICH ANY PARTICLE CANNOT MOVE MORE THAN ONE CELL
 = 0.1188    (WHEN MIN. R.F.=1)  AT K=   3, I=   2, J=  33

 MAXIMUM STEPSIZE WHICH MEETS STABILITY CRITERION OF THE ADVECTION TERM
 (FOR PURE FINITE-DIFFERENCE OPTION, MIXELM=0) 
 = 0.8140E-01(WHEN MIN. R.F.=1)  AT K=   3, I=   2, J=  32


 TOTAL NUMBER OF POINT SOURCES/SINKS PRESENT IN THE FLOW MODEL =   240

 MAXIMUM STEPSIZE WHICH MEETS STABILITY CRITERION OF THE SINK & SOURCE TERM
 = 0.1000E+31(WHEN MIN. R.F.=1)  AT K=   0, I=   0, J=   0

 MAXIMUM STEPSIZE WHICH MEETS STABILITY CRITERION OF THE DISPERSION TERM
 = 0.5607E-02(WHEN MIN. R.F.=1)  AT K=   3, I=   2, J=  32
     1 CALLS TO GCG PACKAGE FOR TRANSPORT TIME STEP  10 IN FLOW TIME STEP  51 STRESS PERIOD   2
    13 TOTAL ITERATIONS



 >>>>>>>>>>>>>>>>>>>>>>>>>>>>>>>>>>>>>>>>>>>>>>>>>>>>>>>FOR COMPONENT NO. 01<<<<<<<<<<<<<<<<<<<<<<<<<<<<<<<<<<<<<<<<<<<<<<<<<<<<<<<


                                            -------------------------------------------
                                                      TRANSPORT STEP NO.   10
                                            -------------------------------------------

 TOTAL ELAPSED TIME SINCE BEGINNING OF SIMULATION =   51.89086    D   
 .....................................................................

                     CUMULATIVE MASS BUDGETS AT END OF TRANSPORT STEP   10, TIME STEP   51, STRESS PERIOD    2
                     ------------------------------------------------------------------------------------------

                                                             IN                           OUT
                                                      ----------------             ----------------
                               CONSTANT CONCENTRATION:    8864.961                   -4438.474    
                                        CONSTANT HEAD:    0.000000                    0.000000    
                               MASS STOR (FLOW MODEL):   0.1260685E-01              -0.3312517E-02
                                MASS STORAGE (SOLUTE):    1.625594                   -4428.125    
                            ---------------------------------------------------------------------------
                                              [TOTAL]:    8866.599     KG            -8866.602     KG  

                                                          NET (IN - OUT):  -0.2798566E-02
                                                   DISCREPANCY (PERCENT):  -0.3156301E-04
 
 SOLVING FOR HEAD 
 FLOW MODEL IS TRANSIENT
 FLOW MODEL CONTAINS CONSTANT-HEAD CELLS


 MAXIMUM STEPSIZE DURING WHICH ANY PARTICLE CANNOT MOVE MORE THAN ONE CELL
 = 0.1188    (WHEN MIN. R.F.=1)  AT K=   3, I=   2, J=  33

 MAXIMUM STEPSIZE WHICH MEETS STABILITY CRITERION OF THE ADVECTION TERM
 (FOR PURE FINITE-DIFFERENCE OPTION, MIXELM=0) 
 = 0.8140E-01(WHEN MIN. R.F.=1)  AT K=   3, I=   2, J=  32


 TOTAL NUMBER OF POINT SOURCES/SINKS PRESENT IN THE FLOW MODEL =   240

 MAXIMUM STEPSIZE WHICH MEETS STABILITY CRITERION OF THE SINK & SOURCE TERM
 = 0.1000E+31(WHEN MIN. R.F.=1)  AT K=   0, I=   0, J=   0

 MAXIMUM STEPSIZE WHICH MEETS STABILITY CRITERION OF THE DISPERSION TERM
 = 0.5607E-02(WHEN MIN. R.F.=1)  AT K=   3, I=   2, J=  32
     1 CALLS TO GCG PACKAGE FOR TRANSPORT TIME STEP  11 IN FLOW TIME STEP  51 STRESS PERIOD   2
    13 TOTAL ITERATIONS
 
 SOLVING FOR HEAD 
 FLOW MODEL IS TRANSIENT
 FLOW MODEL CONTAINS CONSTANT-HEAD CELLS


 MAXIMUM STEPSIZE DURING WHICH ANY PARTICLE CANNOT MOVE MORE THAN ONE CELL
 = 0.1188    (WHEN MIN. R.F.=1)  AT K=   3, I=   2, J=  33

 MAXIMUM STEPSIZE WHICH MEETS STABILITY CRITERION OF THE ADVECTION TERM
 (FOR PURE FINITE-DIFFERENCE OPTION, MIXELM=0) 
 = 0.8140E-01(WHEN MIN. R.F.=1)  AT K=   3, I=   2, J=  32


 TOTAL NUMBER OF POINT SOURCES/SINKS PRESENT IN THE FLOW MODEL =   240

 MAXIMUM STEPSIZE WHICH MEETS STABILITY CRITERION OF THE SINK & SOURCE TERM
 = 0.1000E+31(WHEN MIN. R.F.=1)  AT K=   0, I=   0, J=   0

 MAXIMUM STEPSIZE WHICH MEETS STABILITY CRITERION OF THE DISPERSION TERM
 = 0.5607E-02(WHEN MIN. R.F.=1)  AT K=   3, I=   2, J=  32
     1 CALLS TO GCG PACKAGE FOR TRANSPORT TIME STEP  12 IN FLOW TIME STEP  51 STRESS PERIOD   2
     7 TOTAL ITERATIONS
  MAXIMUM CONCENTRATION CHANGES FOR EACH ITERATION:
  MAX. CHANGE LAYER,ROW,COL MAX. CHANGE LAYER,ROW,COL MAX. CHANGE LAYER,ROW,COL MAX. CHANGE LAYER,ROW,COL MAX. CHANGE LAYER,ROW,COL
 ------------------------------------------------------------------------------------------------------------------------------------
   0.1676E-03 ( 13,  2, 60)  0.1471E-04 (  6,  2, 60)  0.2142E-05 (  5,  2, 57)  0.6186E-06 (  3,  2, 33)  0.2899E-06 (  4,  2, 33)
   0.1205E-06 (  3,  2, 33)  0.3413E-07 (  2,  2, 33)


                                          ================================================
                                                         FROM TIME =   52.000     TO    53.000    

 
 SOLVING FOR HEAD 
 FLOW MODEL IS TRANSIENT
 FLOW MODEL CONTAINS CONSTANT-HEAD CELLS


 MAXIMUM STEPSIZE DURING WHICH ANY PARTICLE CANNOT MOVE MORE THAN ONE CELL
 = 0.1188    (WHEN MIN. R.F.=1)  AT K=   3, I=   2, J=  33

 MAXIMUM STEPSIZE WHICH MEETS STABILITY CRITERION OF THE ADVECTION TERM
 (FOR PURE FINITE-DIFFERENCE OPTION, MIXELM=0) 
 = 0.8140E-01(WHEN MIN. R.F.=1)  AT K=   3, I=   2, J=  32


 TOTAL NUMBER OF POINT SOURCES/SINKS PRESENT IN THE FLOW MODEL =   240

 MAXIMUM STEPSIZE WHICH MEETS STABILITY CRITERION OF THE SINK & SOURCE TERM
 = 0.1000E+31(WHEN MIN. R.F.=1)  AT K=   0, I=   0, J=   0

 MAXIMUM STEPSIZE WHICH MEETS STABILITY CRITERION OF THE DISPERSION TERM
 = 0.5607E-02(WHEN MIN. R.F.=1)  AT K=   3, I=   2, J=  32


     1 CALLS TO GCG PACKAGE FOR TRANSPORT TIME STEP   1 IN FLOW TIME STEP  52 STRESS PERIOD   2
    13 TOTAL ITERATIONS

 NO OUTPUT CONTROL FOR STRESS PERIOD    2   TIME STEP  52
 
 SOLVING FOR HEAD 
 FLOW MODEL IS TRANSIENT
 FLOW MODEL CONTAINS CONSTANT-HEAD CELLS


 MAXIMUM STEPSIZE DURING WHICH ANY PARTICLE CANNOT MOVE MORE THAN ONE CELL
 = 0.1188    (WHEN MIN. R.F.=1)  AT K=   3, I=   2, J=  33

 MAXIMUM STEPSIZE WHICH MEETS STABILITY CRITERION OF THE ADVECTION TERM
 (FOR PURE FINITE-DIFFERENCE OPTION, MIXELM=0) 
 = 0.8140E-01(WHEN MIN. R.F.=1)  AT K=   3, I=   2, J=  32


 TOTAL NUMBER OF POINT SOURCES/SINKS PRESENT IN THE FLOW MODEL =   240

 MAXIMUM STEPSIZE WHICH MEETS STABILITY CRITERION OF THE SINK & SOURCE TERM
 = 0.1000E+31(WHEN MIN. R.F.=1)  AT K=   0, I=   0, J=   0

 MAXIMUM STEPSIZE WHICH MEETS STABILITY CRITERION OF THE DISPERSION TERM
 = 0.5607E-02(WHEN MIN. R.F.=1)  AT K=   3, I=   2, J=  32
     1 CALLS TO GCG PACKAGE FOR TRANSPORT TIME STEP   2 IN FLOW TIME STEP  52 STRESS PERIOD   2
    13 TOTAL ITERATIONS
 
 SOLVING FOR HEAD 
 FLOW MODEL IS TRANSIENT
 FLOW MODEL CONTAINS CONSTANT-HEAD CELLS


 MAXIMUM STEPSIZE DURING WHICH ANY PARTICLE CANNOT MOVE MORE THAN ONE CELL
 = 0.1188    (WHEN MIN. R.F.=1)  AT K=   3, I=   2, J=  33

 MAXIMUM STEPSIZE WHICH MEETS STABILITY CRITERION OF THE ADVECTION TERM
 (FOR PURE FINITE-DIFFERENCE OPTION, MIXELM=0) 
 = 0.8140E-01(WHEN MIN. R.F.=1)  AT K=   3, I=   2, J=  32


 TOTAL NUMBER OF POINT SOURCES/SINKS PRESENT IN THE FLOW MODEL =   240

 MAXIMUM STEPSIZE WHICH MEETS STABILITY CRITERION OF THE SINK & SOURCE TERM
 = 0.1000E+31(WHEN MIN. R.F.=1)  AT K=   0, I=   0, J=   0

 MAXIMUM STEPSIZE WHICH MEETS STABILITY CRITERION OF THE DISPERSION TERM
 = 0.5607E-02(WHEN MIN. R.F.=1)  AT K=   3, I=   2, J=  32
     1 CALLS TO GCG PACKAGE FOR TRANSPORT TIME STEP   3 IN FLOW TIME STEP  52 STRESS PERIOD   2
    13 TOTAL ITERATIONS
 
 SOLVING FOR HEAD 
 FLOW MODEL IS TRANSIENT
 FLOW MODEL CONTAINS CONSTANT-HEAD CELLS


 MAXIMUM STEPSIZE DURING WHICH ANY PARTICLE CANNOT MOVE MORE THAN ONE CELL
 = 0.1188    (WHEN MIN. R.F.=1)  AT K=   3, I=   2, J=  33

 MAXIMUM STEPSIZE WHICH MEETS STABILITY CRITERION OF THE ADVECTION TERM
 (FOR PURE FINITE-DIFFERENCE OPTION, MIXELM=0) 
 = 0.8140E-01(WHEN MIN. R.F.=1)  AT K=   3, I=   2, J=  32


 TOTAL NUMBER OF POINT SOURCES/SINKS PRESENT IN THE FLOW MODEL =   240

 MAXIMUM STEPSIZE WHICH MEETS STABILITY CRITERION OF THE SINK & SOURCE TERM
 = 0.1000E+31(WHEN MIN. R.F.=1)  AT K=   0, I=   0, J=   0

 MAXIMUM STEPSIZE WHICH MEETS STABILITY CRITERION OF THE DISPERSION TERM
 = 0.5607E-02(WHEN MIN. R.F.=1)  AT K=   3, I=   2, J=  32
     1 CALLS TO GCG PACKAGE FOR TRANSPORT TIME STEP   4 IN FLOW TIME STEP  52 STRESS PERIOD   2
    13 TOTAL ITERATIONS
 
 SOLVING FOR HEAD 
 FLOW MODEL IS TRANSIENT
 FLOW MODEL CONTAINS CONSTANT-HEAD CELLS


 MAXIMUM STEPSIZE DURING WHICH ANY PARTICLE CANNOT MOVE MORE THAN ONE CELL
 = 0.1188    (WHEN MIN. R.F.=1)  AT K=   3, I=   2, J=  33

 MAXIMUM STEPSIZE WHICH MEETS STABILITY CRITERION OF THE ADVECTION TERM
 (FOR PURE FINITE-DIFFERENCE OPTION, MIXELM=0) 
 = 0.8140E-01(WHEN MIN. R.F.=1)  AT K=   3, I=   2, J=  32


 TOTAL NUMBER OF POINT SOURCES/SINKS PRESENT IN THE FLOW MODEL =   240

 MAXIMUM STEPSIZE WHICH MEETS STABILITY CRITERION OF THE SINK & SOURCE TERM
 = 0.1000E+31(WHEN MIN. R.F.=1)  AT K=   0, I=   0, J=   0

 MAXIMUM STEPSIZE WHICH MEETS STABILITY CRITERION OF THE DISPERSION TERM
 = 0.5607E-02(WHEN MIN. R.F.=1)  AT K=   3, I=   2, J=  32
     1 CALLS TO GCG PACKAGE FOR TRANSPORT TIME STEP   5 IN FLOW TIME STEP  52 STRESS PERIOD   2
    13 TOTAL ITERATIONS
 
 SOLVING FOR HEAD 
 FLOW MODEL IS TRANSIENT
 FLOW MODEL CONTAINS CONSTANT-HEAD CELLS


 MAXIMUM STEPSIZE DURING WHICH ANY PARTICLE CANNOT MOVE MORE THAN ONE CELL
 = 0.1188    (WHEN MIN. R.F.=1)  AT K=   3, I=   2, J=  33

 MAXIMUM STEPSIZE WHICH MEETS STABILITY CRITERION OF THE ADVECTION TERM
 (FOR PURE FINITE-DIFFERENCE OPTION, MIXELM=0) 
 = 0.8140E-01(WHEN MIN. R.F.=1)  AT K=   3, I=   2, J=  32


 TOTAL NUMBER OF POINT SOURCES/SINKS PRESENT IN THE FLOW MODEL =   240

 MAXIMUM STEPSIZE WHICH MEETS STABILITY CRITERION OF THE SINK & SOURCE TERM
 = 0.1000E+31(WHEN MIN. R.F.=1)  AT K=   0, I=   0, J=   0

 MAXIMUM STEPSIZE WHICH MEETS STABILITY CRITERION OF THE DISPERSION TERM
 = 0.5607E-02(WHEN MIN. R.F.=1)  AT K=   3, I=   2, J=  32
     1 CALLS TO GCG PACKAGE FOR TRANSPORT TIME STEP   6 IN FLOW TIME STEP  52 STRESS PERIOD   2
    13 TOTAL ITERATIONS
 
 SOLVING FOR HEAD 
 FLOW MODEL IS TRANSIENT
 FLOW MODEL CONTAINS CONSTANT-HEAD CELLS


 MAXIMUM STEPSIZE DURING WHICH ANY PARTICLE CANNOT MOVE MORE THAN ONE CELL
 = 0.1188    (WHEN MIN. R.F.=1)  AT K=   3, I=   2, J=  33

 MAXIMUM STEPSIZE WHICH MEETS STABILITY CRITERION OF THE ADVECTION TERM
 (FOR PURE FINITE-DIFFERENCE OPTION, MIXELM=0) 
 = 0.8140E-01(WHEN MIN. R.F.=1)  AT K=   3, I=   2, J=  32


 TOTAL NUMBER OF POINT SOURCES/SINKS PRESENT IN THE FLOW MODEL =   240

 MAXIMUM STEPSIZE WHICH MEETS STABILITY CRITERION OF THE SINK & SOURCE TERM
 = 0.1000E+31(WHEN MIN. R.F.=1)  AT K=   0, I=   0, J=   0

 MAXIMUM STEPSIZE WHICH MEETS STABILITY CRITERION OF THE DISPERSION TERM
 = 0.5607E-02(WHEN MIN. R.F.=1)  AT K=   3, I=   2, J=  32
     1 CALLS TO GCG PACKAGE FOR TRANSPORT TIME STEP   7 IN FLOW TIME STEP  52 STRESS PERIOD   2
    13 TOTAL ITERATIONS
 
 SOLVING FOR HEAD 
 FLOW MODEL IS TRANSIENT
 FLOW MODEL CONTAINS CONSTANT-HEAD CELLS


 MAXIMUM STEPSIZE DURING WHICH ANY PARTICLE CANNOT MOVE MORE THAN ONE CELL
 = 0.1188    (WHEN MIN. R.F.=1)  AT K=   3, I=   2, J=  33

 MAXIMUM STEPSIZE WHICH MEETS STABILITY CRITERION OF THE ADVECTION TERM
 (FOR PURE FINITE-DIFFERENCE OPTION, MIXELM=0) 
 = 0.8140E-01(WHEN MIN. R.F.=1)  AT K=   3, I=   2, J=  32


 TOTAL NUMBER OF POINT SOURCES/SINKS PRESENT IN THE FLOW MODEL =   240

 MAXIMUM STEPSIZE WHICH MEETS STABILITY CRITERION OF THE SINK & SOURCE TERM
 = 0.1000E+31(WHEN MIN. R.F.=1)  AT K=   0, I=   0, J=   0

 MAXIMUM STEPSIZE WHICH MEETS STABILITY CRITERION OF THE DISPERSION TERM
 = 0.5607E-02(WHEN MIN. R.F.=1)  AT K=   3, I=   2, J=  32
     1 CALLS TO GCG PACKAGE FOR TRANSPORT TIME STEP   8 IN FLOW TIME STEP  52 STRESS PERIOD   2
    13 TOTAL ITERATIONS
 
 SOLVING FOR HEAD 
 FLOW MODEL IS TRANSIENT
 FLOW MODEL CONTAINS CONSTANT-HEAD CELLS


 MAXIMUM STEPSIZE DURING WHICH ANY PARTICLE CANNOT MOVE MORE THAN ONE CELL
 = 0.1188    (WHEN MIN. R.F.=1)  AT K=   3, I=   2, J=  33

 MAXIMUM STEPSIZE WHICH MEETS STABILITY CRITERION OF THE ADVECTION TERM
 (FOR PURE FINITE-DIFFERENCE OPTION, MIXELM=0) 
 = 0.8140E-01(WHEN MIN. R.F.=1)  AT K=   3, I=   2, J=  32


 TOTAL NUMBER OF POINT SOURCES/SINKS PRESENT IN THE FLOW MODEL =   240

 MAXIMUM STEPSIZE WHICH MEETS STABILITY CRITERION OF THE SINK & SOURCE TERM
 = 0.1000E+31(WHEN MIN. R.F.=1)  AT K=   0, I=   0, J=   0

 MAXIMUM STEPSIZE WHICH MEETS STABILITY CRITERION OF THE DISPERSION TERM
 = 0.5607E-02(WHEN MIN. R.F.=1)  AT K=   3, I=   2, J=  32
     1 CALLS TO GCG PACKAGE FOR TRANSPORT TIME STEP   9 IN FLOW TIME STEP  52 STRESS PERIOD   2
    13 TOTAL ITERATIONS
 
 SOLVING FOR HEAD 
 FLOW MODEL IS TRANSIENT
 FLOW MODEL CONTAINS CONSTANT-HEAD CELLS


 MAXIMUM STEPSIZE DURING WHICH ANY PARTICLE CANNOT MOVE MORE THAN ONE CELL
 = 0.1188    (WHEN MIN. R.F.=1)  AT K=   3, I=   2, J=  33

 MAXIMUM STEPSIZE WHICH MEETS STABILITY CRITERION OF THE ADVECTION TERM
 (FOR PURE FINITE-DIFFERENCE OPTION, MIXELM=0) 
 = 0.8140E-01(WHEN MIN. R.F.=1)  AT K=   3, I=   2, J=  32


 TOTAL NUMBER OF POINT SOURCES/SINKS PRESENT IN THE FLOW MODEL =   240

 MAXIMUM STEPSIZE WHICH MEETS STABILITY CRITERION OF THE SINK & SOURCE TERM
 = 0.1000E+31(WHEN MIN. R.F.=1)  AT K=   0, I=   0, J=   0

 MAXIMUM STEPSIZE WHICH MEETS STABILITY CRITERION OF THE DISPERSION TERM
 = 0.5607E-02(WHEN MIN. R.F.=1)  AT K=   3, I=   2, J=  32
     1 CALLS TO GCG PACKAGE FOR TRANSPORT TIME STEP  10 IN FLOW TIME STEP  52 STRESS PERIOD   2
    13 TOTAL ITERATIONS



 >>>>>>>>>>>>>>>>>>>>>>>>>>>>>>>>>>>>>>>>>>>>>>>>>>>>>>>FOR COMPONENT NO. 01<<<<<<<<<<<<<<<<<<<<<<<<<<<<<<<<<<<<<<<<<<<<<<<<<<<<<<<


                                            -------------------------------------------
                                                      TRANSPORT STEP NO.   10
                                            -------------------------------------------

 TOTAL ELAPSED TIME SINCE BEGINNING OF SIMULATION =   52.89084    D   
 .....................................................................

                     CUMULATIVE MASS BUDGETS AT END OF TRANSPORT STEP   10, TIME STEP   52, STRESS PERIOD    2
                     ------------------------------------------------------------------------------------------

                                                             IN                           OUT
                                                      ----------------             ----------------
                               CONSTANT CONCENTRATION:    8977.348                   -4530.819    
                                        CONSTANT HEAD:    0.000000                    0.000000    
                               MASS STOR (FLOW MODEL):   0.1262513E-01              -0.3317962E-02
                                MASS STORAGE (SOLUTE):    1.841289                   -4448.383    
                            ---------------------------------------------------------------------------
                                              [TOTAL]:    8979.202     KG            -8979.205     KG  

                                                          NET (IN - OUT):  -0.2818362E-02
                                                   DISCREPANCY (PERCENT):  -0.3138766E-04
 
 SOLVING FOR HEAD 
 FLOW MODEL IS TRANSIENT
 FLOW MODEL CONTAINS CONSTANT-HEAD CELLS


 MAXIMUM STEPSIZE DURING WHICH ANY PARTICLE CANNOT MOVE MORE THAN ONE CELL
 = 0.1188    (WHEN MIN. R.F.=1)  AT K=   3, I=   2, J=  33

 MAXIMUM STEPSIZE WHICH MEETS STABILITY CRITERION OF THE ADVECTION TERM
 (FOR PURE FINITE-DIFFERENCE OPTION, MIXELM=0) 
 = 0.8140E-01(WHEN MIN. R.F.=1)  AT K=   3, I=   2, J=  32


 TOTAL NUMBER OF POINT SOURCES/SINKS PRESENT IN THE FLOW MODEL =   240

 MAXIMUM STEPSIZE WHICH MEETS STABILITY CRITERION OF THE SINK & SOURCE TERM
 = 0.1000E+31(WHEN MIN. R.F.=1)  AT K=   0, I=   0, J=   0

 MAXIMUM STEPSIZE WHICH MEETS STABILITY CRITERION OF THE DISPERSION TERM
 = 0.5607E-02(WHEN MIN. R.F.=1)  AT K=   3, I=   2, J=  32
     1 CALLS TO GCG PACKAGE FOR TRANSPORT TIME STEP  11 IN FLOW TIME STEP  52 STRESS PERIOD   2
    13 TOTAL ITERATIONS
 
 SOLVING FOR HEAD 
 FLOW MODEL IS TRANSIENT
 FLOW MODEL CONTAINS CONSTANT-HEAD CELLS


 MAXIMUM STEPSIZE DURING WHICH ANY PARTICLE CANNOT MOVE MORE THAN ONE CELL
 = 0.1188    (WHEN MIN. R.F.=1)  AT K=   3, I=   2, J=  33

 MAXIMUM STEPSIZE WHICH MEETS STABILITY CRITERION OF THE ADVECTION TERM
 (FOR PURE FINITE-DIFFERENCE OPTION, MIXELM=0) 
 = 0.8140E-01(WHEN MIN. R.F.=1)  AT K=   3, I=   2, J=  32


 TOTAL NUMBER OF POINT SOURCES/SINKS PRESENT IN THE FLOW MODEL =   240

 MAXIMUM STEPSIZE WHICH MEETS STABILITY CRITERION OF THE SINK & SOURCE TERM
 = 0.1000E+31(WHEN MIN. R.F.=1)  AT K=   0, I=   0, J=   0

 MAXIMUM STEPSIZE WHICH MEETS STABILITY CRITERION OF THE DISPERSION TERM
 = 0.5607E-02(WHEN MIN. R.F.=1)  AT K=   3, I=   2, J=  32
     1 CALLS TO GCG PACKAGE FOR TRANSPORT TIME STEP  12 IN FLOW TIME STEP  52 STRESS PERIOD   2
     7 TOTAL ITERATIONS
  MAXIMUM CONCENTRATION CHANGES FOR EACH ITERATION:
  MAX. CHANGE LAYER,ROW,COL MAX. CHANGE LAYER,ROW,COL MAX. CHANGE LAYER,ROW,COL MAX. CHANGE LAYER,ROW,COL MAX. CHANGE LAYER,ROW,COL
 ------------------------------------------------------------------------------------------------------------------------------------
   0.1642E-03 ( 13,  2, 60)  0.1418E-04 (  6,  2, 60)  0.2067E-05 (  5,  2, 57)  0.5889E-06 (  3,  2, 33)  0.2768E-06 (  4,  2, 33)
   0.1153E-06 (  3,  2, 33)  0.3277E-07 (  2,  2, 33)


                                          ================================================
                                                         FROM TIME =   53.000     TO    54.000    

 
 SOLVING FOR HEAD 
 FLOW MODEL IS TRANSIENT
 FLOW MODEL CONTAINS CONSTANT-HEAD CELLS


 MAXIMUM STEPSIZE DURING WHICH ANY PARTICLE CANNOT MOVE MORE THAN ONE CELL
 = 0.1188    (WHEN MIN. R.F.=1)  AT K=   3, I=   2, J=  33

 MAXIMUM STEPSIZE WHICH MEETS STABILITY CRITERION OF THE ADVECTION TERM
 (FOR PURE FINITE-DIFFERENCE OPTION, MIXELM=0) 
 = 0.8140E-01(WHEN MIN. R.F.=1)  AT K=   3, I=   2, J=  32


 TOTAL NUMBER OF POINT SOURCES/SINKS PRESENT IN THE FLOW MODEL =   240

 MAXIMUM STEPSIZE WHICH MEETS STABILITY CRITERION OF THE SINK & SOURCE TERM
 = 0.1000E+31(WHEN MIN. R.F.=1)  AT K=   0, I=   0, J=   0

 MAXIMUM STEPSIZE WHICH MEETS STABILITY CRITERION OF THE DISPERSION TERM
 = 0.5607E-02(WHEN MIN. R.F.=1)  AT K=   3, I=   2, J=  32


     1 CALLS TO GCG PACKAGE FOR TRANSPORT TIME STEP   1 IN FLOW TIME STEP  53 STRESS PERIOD   2
    13 TOTAL ITERATIONS

 NO OUTPUT CONTROL FOR STRESS PERIOD    2   TIME STEP  53
 
 SOLVING FOR HEAD 
 FLOW MODEL IS TRANSIENT
 FLOW MODEL CONTAINS CONSTANT-HEAD CELLS


 MAXIMUM STEPSIZE DURING WHICH ANY PARTICLE CANNOT MOVE MORE THAN ONE CELL
 = 0.1188    (WHEN MIN. R.F.=1)  AT K=   3, I=   2, J=  33

 MAXIMUM STEPSIZE WHICH MEETS STABILITY CRITERION OF THE ADVECTION TERM
 (FOR PURE FINITE-DIFFERENCE OPTION, MIXELM=0) 
 = 0.8140E-01(WHEN MIN. R.F.=1)  AT K=   3, I=   2, J=  32


 TOTAL NUMBER OF POINT SOURCES/SINKS PRESENT IN THE FLOW MODEL =   240

 MAXIMUM STEPSIZE WHICH MEETS STABILITY CRITERION OF THE SINK & SOURCE TERM
 = 0.1000E+31(WHEN MIN. R.F.=1)  AT K=   0, I=   0, J=   0

 MAXIMUM STEPSIZE WHICH MEETS STABILITY CRITERION OF THE DISPERSION TERM
 = 0.5607E-02(WHEN MIN. R.F.=1)  AT K=   3, I=   2, J=  32
     1 CALLS TO GCG PACKAGE FOR TRANSPORT TIME STEP   2 IN FLOW TIME STEP  53 STRESS PERIOD   2
    13 TOTAL ITERATIONS
 
 SOLVING FOR HEAD 
 FLOW MODEL IS TRANSIENT
 FLOW MODEL CONTAINS CONSTANT-HEAD CELLS


 MAXIMUM STEPSIZE DURING WHICH ANY PARTICLE CANNOT MOVE MORE THAN ONE CELL
 = 0.1188    (WHEN MIN. R.F.=1)  AT K=   3, I=   2, J=  33

 MAXIMUM STEPSIZE WHICH MEETS STABILITY CRITERION OF THE ADVECTION TERM
 (FOR PURE FINITE-DIFFERENCE OPTION, MIXELM=0) 
 = 0.8140E-01(WHEN MIN. R.F.=1)  AT K=   3, I=   2, J=  32


 TOTAL NUMBER OF POINT SOURCES/SINKS PRESENT IN THE FLOW MODEL =   240

 MAXIMUM STEPSIZE WHICH MEETS STABILITY CRITERION OF THE SINK & SOURCE TERM
 = 0.1000E+31(WHEN MIN. R.F.=1)  AT K=   0, I=   0, J=   0

 MAXIMUM STEPSIZE WHICH MEETS STABILITY CRITERION OF THE DISPERSION TERM
 = 0.5607E-02(WHEN MIN. R.F.=1)  AT K=   3, I=   2, J=  32
     1 CALLS TO GCG PACKAGE FOR TRANSPORT TIME STEP   3 IN FLOW TIME STEP  53 STRESS PERIOD   2
    13 TOTAL ITERATIONS
 
 SOLVING FOR HEAD 
 FLOW MODEL IS TRANSIENT
 FLOW MODEL CONTAINS CONSTANT-HEAD CELLS


 MAXIMUM STEPSIZE DURING WHICH ANY PARTICLE CANNOT MOVE MORE THAN ONE CELL
 = 0.1188    (WHEN MIN. R.F.=1)  AT K=   3, I=   2, J=  33

 MAXIMUM STEPSIZE WHICH MEETS STABILITY CRITERION OF THE ADVECTION TERM
 (FOR PURE FINITE-DIFFERENCE OPTION, MIXELM=0) 
 = 0.8140E-01(WHEN MIN. R.F.=1)  AT K=   3, I=   2, J=  32


 TOTAL NUMBER OF POINT SOURCES/SINKS PRESENT IN THE FLOW MODEL =   240

 MAXIMUM STEPSIZE WHICH MEETS STABILITY CRITERION OF THE SINK & SOURCE TERM
 = 0.1000E+31(WHEN MIN. R.F.=1)  AT K=   0, I=   0, J=   0

 MAXIMUM STEPSIZE WHICH MEETS STABILITY CRITERION OF THE DISPERSION TERM
 = 0.5607E-02(WHEN MIN. R.F.=1)  AT K=   3, I=   2, J=  32
     1 CALLS TO GCG PACKAGE FOR TRANSPORT TIME STEP   4 IN FLOW TIME STEP  53 STRESS PERIOD   2
    13 TOTAL ITERATIONS
 
 SOLVING FOR HEAD 
 FLOW MODEL IS TRANSIENT
 FLOW MODEL CONTAINS CONSTANT-HEAD CELLS


 MAXIMUM STEPSIZE DURING WHICH ANY PARTICLE CANNOT MOVE MORE THAN ONE CELL
 = 0.1188    (WHEN MIN. R.F.=1)  AT K=   3, I=   2, J=  33

 MAXIMUM STEPSIZE WHICH MEETS STABILITY CRITERION OF THE ADVECTION TERM
 (FOR PURE FINITE-DIFFERENCE OPTION, MIXELM=0) 
 = 0.8140E-01(WHEN MIN. R.F.=1)  AT K=   3, I=   2, J=  32


 TOTAL NUMBER OF POINT SOURCES/SINKS PRESENT IN THE FLOW MODEL =   240

 MAXIMUM STEPSIZE WHICH MEETS STABILITY CRITERION OF THE SINK & SOURCE TERM
 = 0.1000E+31(WHEN MIN. R.F.=1)  AT K=   0, I=   0, J=   0

 MAXIMUM STEPSIZE WHICH MEETS STABILITY CRITERION OF THE DISPERSION TERM
 = 0.5607E-02(WHEN MIN. R.F.=1)  AT K=   3, I=   2, J=  32
     1 CALLS TO GCG PACKAGE FOR TRANSPORT TIME STEP   5 IN FLOW TIME STEP  53 STRESS PERIOD   2
    13 TOTAL ITERATIONS
 
 SOLVING FOR HEAD 
 FLOW MODEL IS TRANSIENT
 FLOW MODEL CONTAINS CONSTANT-HEAD CELLS


 MAXIMUM STEPSIZE DURING WHICH ANY PARTICLE CANNOT MOVE MORE THAN ONE CELL
 = 0.1188    (WHEN MIN. R.F.=1)  AT K=   3, I=   2, J=  33

 MAXIMUM STEPSIZE WHICH MEETS STABILITY CRITERION OF THE ADVECTION TERM
 (FOR PURE FINITE-DIFFERENCE OPTION, MIXELM=0) 
 = 0.8140E-01(WHEN MIN. R.F.=1)  AT K=   3, I=   2, J=  32


 TOTAL NUMBER OF POINT SOURCES/SINKS PRESENT IN THE FLOW MODEL =   240

 MAXIMUM STEPSIZE WHICH MEETS STABILITY CRITERION OF THE SINK & SOURCE TERM
 = 0.1000E+31(WHEN MIN. R.F.=1)  AT K=   0, I=   0, J=   0

 MAXIMUM STEPSIZE WHICH MEETS STABILITY CRITERION OF THE DISPERSION TERM
 = 0.5607E-02(WHEN MIN. R.F.=1)  AT K=   3, I=   2, J=  32
     1 CALLS TO GCG PACKAGE FOR TRANSPORT TIME STEP   6 IN FLOW TIME STEP  53 STRESS PERIOD   2
    13 TOTAL ITERATIONS
 
 SOLVING FOR HEAD 
 FLOW MODEL IS TRANSIENT
 FLOW MODEL CONTAINS CONSTANT-HEAD CELLS


 MAXIMUM STEPSIZE DURING WHICH ANY PARTICLE CANNOT MOVE MORE THAN ONE CELL
 = 0.1188    (WHEN MIN. R.F.=1)  AT K=   3, I=   2, J=  33

 MAXIMUM STEPSIZE WHICH MEETS STABILITY CRITERION OF THE ADVECTION TERM
 (FOR PURE FINITE-DIFFERENCE OPTION, MIXELM=0) 
 = 0.8140E-01(WHEN MIN. R.F.=1)  AT K=   3, I=   2, J=  32


 TOTAL NUMBER OF POINT SOURCES/SINKS PRESENT IN THE FLOW MODEL =   240

 MAXIMUM STEPSIZE WHICH MEETS STABILITY CRITERION OF THE SINK & SOURCE TERM
 = 0.1000E+31(WHEN MIN. R.F.=1)  AT K=   0, I=   0, J=   0

 MAXIMUM STEPSIZE WHICH MEETS STABILITY CRITERION OF THE DISPERSION TERM
 = 0.5607E-02(WHEN MIN. R.F.=1)  AT K=   3, I=   2, J=  32
     1 CALLS TO GCG PACKAGE FOR TRANSPORT TIME STEP   7 IN FLOW TIME STEP  53 STRESS PERIOD   2
    13 TOTAL ITERATIONS
 
 SOLVING FOR HEAD 
 FLOW MODEL IS TRANSIENT
 FLOW MODEL CONTAINS CONSTANT-HEAD CELLS


 MAXIMUM STEPSIZE DURING WHICH ANY PARTICLE CANNOT MOVE MORE THAN ONE CELL
 = 0.1188    (WHEN MIN. R.F.=1)  AT K=   3, I=   2, J=  33

 MAXIMUM STEPSIZE WHICH MEETS STABILITY CRITERION OF THE ADVECTION TERM
 (FOR PURE FINITE-DIFFERENCE OPTION, MIXELM=0) 
 = 0.8140E-01(WHEN MIN. R.F.=1)  AT K=   3, I=   2, J=  32


 TOTAL NUMBER OF POINT SOURCES/SINKS PRESENT IN THE FLOW MODEL =   240

 MAXIMUM STEPSIZE WHICH MEETS STABILITY CRITERION OF THE SINK & SOURCE TERM
 = 0.1000E+31(WHEN MIN. R.F.=1)  AT K=   0, I=   0, J=   0

 MAXIMUM STEPSIZE WHICH MEETS STABILITY CRITERION OF THE DISPERSION TERM
 = 0.5607E-02(WHEN MIN. R.F.=1)  AT K=   3, I=   2, J=  32
     1 CALLS TO GCG PACKAGE FOR TRANSPORT TIME STEP   8 IN FLOW TIME STEP  53 STRESS PERIOD   2
    13 TOTAL ITERATIONS
 
 SOLVING FOR HEAD 
 FLOW MODEL IS TRANSIENT
 FLOW MODEL CONTAINS CONSTANT-HEAD CELLS


 MAXIMUM STEPSIZE DURING WHICH ANY PARTICLE CANNOT MOVE MORE THAN ONE CELL
 = 0.1188    (WHEN MIN. R.F.=1)  AT K=   3, I=   2, J=  33

 MAXIMUM STEPSIZE WHICH MEETS STABILITY CRITERION OF THE ADVECTION TERM
 (FOR PURE FINITE-DIFFERENCE OPTION, MIXELM=0) 
 = 0.8140E-01(WHEN MIN. R.F.=1)  AT K=   3, I=   2, J=  32


 TOTAL NUMBER OF POINT SOURCES/SINKS PRESENT IN THE FLOW MODEL =   240

 MAXIMUM STEPSIZE WHICH MEETS STABILITY CRITERION OF THE SINK & SOURCE TERM
 = 0.1000E+31(WHEN MIN. R.F.=1)  AT K=   0, I=   0, J=   0

 MAXIMUM STEPSIZE WHICH MEETS STABILITY CRITERION OF THE DISPERSION TERM
 = 0.5607E-02(WHEN MIN. R.F.=1)  AT K=   3, I=   2, J=  32
     1 CALLS TO GCG PACKAGE FOR TRANSPORT TIME STEP   9 IN FLOW TIME STEP  53 STRESS PERIOD   2
    13 TOTAL ITERATIONS
 
 SOLVING FOR HEAD 
 FLOW MODEL IS TRANSIENT
 FLOW MODEL CONTAINS CONSTANT-HEAD CELLS


 MAXIMUM STEPSIZE DURING WHICH ANY PARTICLE CANNOT MOVE MORE THAN ONE CELL
 = 0.1188    (WHEN MIN. R.F.=1)  AT K=   3, I=   2, J=  33

 MAXIMUM STEPSIZE WHICH MEETS STABILITY CRITERION OF THE ADVECTION TERM
 (FOR PURE FINITE-DIFFERENCE OPTION, MIXELM=0) 
 = 0.8140E-01(WHEN MIN. R.F.=1)  AT K=   3, I=   2, J=  32


 TOTAL NUMBER OF POINT SOURCES/SINKS PRESENT IN THE FLOW MODEL =   240

 MAXIMUM STEPSIZE WHICH MEETS STABILITY CRITERION OF THE SINK & SOURCE TERM
 = 0.1000E+31(WHEN MIN. R.F.=1)  AT K=   0, I=   0, J=   0

 MAXIMUM STEPSIZE WHICH MEETS STABILITY CRITERION OF THE DISPERSION TERM
 = 0.5607E-02(WHEN MIN. R.F.=1)  AT K=   3, I=   2, J=  32
     1 CALLS TO GCG PACKAGE FOR TRANSPORT TIME STEP  10 IN FLOW TIME STEP  53 STRESS PERIOD   2
    13 TOTAL ITERATIONS



 >>>>>>>>>>>>>>>>>>>>>>>>>>>>>>>>>>>>>>>>>>>>>>>>>>>>>>>FOR COMPONENT NO. 01<<<<<<<<<<<<<<<<<<<<<<<<<<<<<<<<<<<<<<<<<<<<<<<<<<<<<<<


                                            -------------------------------------------
                                                      TRANSPORT STEP NO.   10
                                            -------------------------------------------

 TOTAL ELAPSED TIME SINCE BEGINNING OF SIMULATION =   53.89081    D   
 .....................................................................

                     CUMULATIVE MASS BUDGETS AT END OF TRANSPORT STEP   10, TIME STEP   53, STRESS PERIOD    2
                     ------------------------------------------------------------------------------------------

                                                             IN                           OUT
                                                      ----------------             ----------------
                               CONSTANT CONCENTRATION:    9089.318                   -4623.199    
                                        CONSTANT HEAD:    0.000000                    0.000000    
                               MASS STOR (FLOW MODEL):   0.1264324E-01              -0.3323259E-02
                                MASS STORAGE (SOLUTE):    2.077261                   -4468.208    
                            ---------------------------------------------------------------------------
                                              [TOTAL]:    9091.407     KG            -9091.410     KG  

                                                          NET (IN - OUT):  -0.2837378E-02
                                                   DISCREPANCY (PERCENT):  -0.3120944E-04
 
 SOLVING FOR HEAD 
 FLOW MODEL IS TRANSIENT
 FLOW MODEL CONTAINS CONSTANT-HEAD CELLS


 MAXIMUM STEPSIZE DURING WHICH ANY PARTICLE CANNOT MOVE MORE THAN ONE CELL
 = 0.1188    (WHEN MIN. R.F.=1)  AT K=   3, I=   2, J=  33

 MAXIMUM STEPSIZE WHICH MEETS STABILITY CRITERION OF THE ADVECTION TERM
 (FOR PURE FINITE-DIFFERENCE OPTION, MIXELM=0) 
 = 0.8140E-01(WHEN MIN. R.F.=1)  AT K=   3, I=   2, J=  32


 TOTAL NUMBER OF POINT SOURCES/SINKS PRESENT IN THE FLOW MODEL =   240

 MAXIMUM STEPSIZE WHICH MEETS STABILITY CRITERION OF THE SINK & SOURCE TERM
 = 0.1000E+31(WHEN MIN. R.F.=1)  AT K=   0, I=   0, J=   0

 MAXIMUM STEPSIZE WHICH MEETS STABILITY CRITERION OF THE DISPERSION TERM
 = 0.5607E-02(WHEN MIN. R.F.=1)  AT K=   3, I=   2, J=  32
     1 CALLS TO GCG PACKAGE FOR TRANSPORT TIME STEP  11 IN FLOW TIME STEP  53 STRESS PERIOD   2
    13 TOTAL ITERATIONS
 
 SOLVING FOR HEAD 
 FLOW MODEL IS TRANSIENT
 FLOW MODEL CONTAINS CONSTANT-HEAD CELLS


 MAXIMUM STEPSIZE DURING WHICH ANY PARTICLE CANNOT MOVE MORE THAN ONE CELL
 = 0.1188    (WHEN MIN. R.F.=1)  AT K=   3, I=   2, J=  33

 MAXIMUM STEPSIZE WHICH MEETS STABILITY CRITERION OF THE ADVECTION TERM
 (FOR PURE FINITE-DIFFERENCE OPTION, MIXELM=0) 
 = 0.8140E-01(WHEN MIN. R.F.=1)  AT K=   3, I=   2, J=  32


 TOTAL NUMBER OF POINT SOURCES/SINKS PRESENT IN THE FLOW MODEL =   240

 MAXIMUM STEPSIZE WHICH MEETS STABILITY CRITERION OF THE SINK & SOURCE TERM
 = 0.1000E+31(WHEN MIN. R.F.=1)  AT K=   0, I=   0, J=   0

 MAXIMUM STEPSIZE WHICH MEETS STABILITY CRITERION OF THE DISPERSION TERM
 = 0.5607E-02(WHEN MIN. R.F.=1)  AT K=   3, I=   2, J=  32
     1 CALLS TO GCG PACKAGE FOR TRANSPORT TIME STEP  12 IN FLOW TIME STEP  53 STRESS PERIOD   2
     7 TOTAL ITERATIONS
  MAXIMUM CONCENTRATION CHANGES FOR EACH ITERATION:
  MAX. CHANGE LAYER,ROW,COL MAX. CHANGE LAYER,ROW,COL MAX. CHANGE LAYER,ROW,COL MAX. CHANGE LAYER,ROW,COL MAX. CHANGE LAYER,ROW,COL
 ------------------------------------------------------------------------------------------------------------------------------------
   0.1607E-03 ( 13,  2, 60)  0.1367E-04 (  6,  2, 60)  0.1995E-05 (  5,  2, 57)  0.5606E-06 (  3,  2, 33)  0.2642E-06 (  4,  2, 33)
   0.1103E-06 (  3,  2, 33)  0.3146E-07 (  2,  2, 33)


                                          ================================================
                                                         FROM TIME =   54.000     TO    55.000    

 
 SOLVING FOR HEAD 
 FLOW MODEL IS TRANSIENT
 FLOW MODEL CONTAINS CONSTANT-HEAD CELLS


 MAXIMUM STEPSIZE DURING WHICH ANY PARTICLE CANNOT MOVE MORE THAN ONE CELL
 = 0.1188    (WHEN MIN. R.F.=1)  AT K=   3, I=   2, J=  33

 MAXIMUM STEPSIZE WHICH MEETS STABILITY CRITERION OF THE ADVECTION TERM
 (FOR PURE FINITE-DIFFERENCE OPTION, MIXELM=0) 
 = 0.8140E-01(WHEN MIN. R.F.=1)  AT K=   3, I=   2, J=  32


 TOTAL NUMBER OF POINT SOURCES/SINKS PRESENT IN THE FLOW MODEL =   240

 MAXIMUM STEPSIZE WHICH MEETS STABILITY CRITERION OF THE SINK & SOURCE TERM
 = 0.1000E+31(WHEN MIN. R.F.=1)  AT K=   0, I=   0, J=   0

 MAXIMUM STEPSIZE WHICH MEETS STABILITY CRITERION OF THE DISPERSION TERM
 = 0.5607E-02(WHEN MIN. R.F.=1)  AT K=   3, I=   2, J=  32


     1 CALLS TO GCG PACKAGE FOR TRANSPORT TIME STEP   1 IN FLOW TIME STEP  54 STRESS PERIOD   2
    13 TOTAL ITERATIONS

 NO OUTPUT CONTROL FOR STRESS PERIOD    2   TIME STEP  54
 
 SOLVING FOR HEAD 
 FLOW MODEL IS TRANSIENT
 FLOW MODEL CONTAINS CONSTANT-HEAD CELLS


 MAXIMUM STEPSIZE DURING WHICH ANY PARTICLE CANNOT MOVE MORE THAN ONE CELL
 = 0.1188    (WHEN MIN. R.F.=1)  AT K=   3, I=   2, J=  33

 MAXIMUM STEPSIZE WHICH MEETS STABILITY CRITERION OF THE ADVECTION TERM
 (FOR PURE FINITE-DIFFERENCE OPTION, MIXELM=0) 
 = 0.8140E-01(WHEN MIN. R.F.=1)  AT K=   3, I=   2, J=  32


 TOTAL NUMBER OF POINT SOURCES/SINKS PRESENT IN THE FLOW MODEL =   240

 MAXIMUM STEPSIZE WHICH MEETS STABILITY CRITERION OF THE SINK & SOURCE TERM
 = 0.1000E+31(WHEN MIN. R.F.=1)  AT K=   0, I=   0, J=   0

 MAXIMUM STEPSIZE WHICH MEETS STABILITY CRITERION OF THE DISPERSION TERM
 = 0.5607E-02(WHEN MIN. R.F.=1)  AT K=   3, I=   2, J=  32
     1 CALLS TO GCG PACKAGE FOR TRANSPORT TIME STEP   2 IN FLOW TIME STEP  54 STRESS PERIOD   2
    13 TOTAL ITERATIONS
 
 SOLVING FOR HEAD 
 FLOW MODEL IS TRANSIENT
 FLOW MODEL CONTAINS CONSTANT-HEAD CELLS


 MAXIMUM STEPSIZE DURING WHICH ANY PARTICLE CANNOT MOVE MORE THAN ONE CELL
 = 0.1188    (WHEN MIN. R.F.=1)  AT K=   3, I=   2, J=  33

 MAXIMUM STEPSIZE WHICH MEETS STABILITY CRITERION OF THE ADVECTION TERM
 (FOR PURE FINITE-DIFFERENCE OPTION, MIXELM=0) 
 = 0.8140E-01(WHEN MIN. R.F.=1)  AT K=   3, I=   2, J=  32


 TOTAL NUMBER OF POINT SOURCES/SINKS PRESENT IN THE FLOW MODEL =   240

 MAXIMUM STEPSIZE WHICH MEETS STABILITY CRITERION OF THE SINK & SOURCE TERM
 = 0.1000E+31(WHEN MIN. R.F.=1)  AT K=   0, I=   0, J=   0

 MAXIMUM STEPSIZE WHICH MEETS STABILITY CRITERION OF THE DISPERSION TERM
 = 0.5607E-02(WHEN MIN. R.F.=1)  AT K=   3, I=   2, J=  32
     1 CALLS TO GCG PACKAGE FOR TRANSPORT TIME STEP   3 IN FLOW TIME STEP  54 STRESS PERIOD   2
    13 TOTAL ITERATIONS
 
 SOLVING FOR HEAD 
 FLOW MODEL IS TRANSIENT
 FLOW MODEL CONTAINS CONSTANT-HEAD CELLS


 MAXIMUM STEPSIZE DURING WHICH ANY PARTICLE CANNOT MOVE MORE THAN ONE CELL
 = 0.1188    (WHEN MIN. R.F.=1)  AT K=   3, I=   2, J=  33

 MAXIMUM STEPSIZE WHICH MEETS STABILITY CRITERION OF THE ADVECTION TERM
 (FOR PURE FINITE-DIFFERENCE OPTION, MIXELM=0) 
 = 0.8140E-01(WHEN MIN. R.F.=1)  AT K=   3, I=   2, J=  32


 TOTAL NUMBER OF POINT SOURCES/SINKS PRESENT IN THE FLOW MODEL =   240

 MAXIMUM STEPSIZE WHICH MEETS STABILITY CRITERION OF THE SINK & SOURCE TERM
 = 0.1000E+31(WHEN MIN. R.F.=1)  AT K=   0, I=   0, J=   0

 MAXIMUM STEPSIZE WHICH MEETS STABILITY CRITERION OF THE DISPERSION TERM
 = 0.5607E-02(WHEN MIN. R.F.=1)  AT K=   3, I=   2, J=  32
     1 CALLS TO GCG PACKAGE FOR TRANSPORT TIME STEP   4 IN FLOW TIME STEP  54 STRESS PERIOD   2
    13 TOTAL ITERATIONS
 
 SOLVING FOR HEAD 
 FLOW MODEL IS TRANSIENT
 FLOW MODEL CONTAINS CONSTANT-HEAD CELLS


 MAXIMUM STEPSIZE DURING WHICH ANY PARTICLE CANNOT MOVE MORE THAN ONE CELL
 = 0.1188    (WHEN MIN. R.F.=1)  AT K=   3, I=   2, J=  33

 MAXIMUM STEPSIZE WHICH MEETS STABILITY CRITERION OF THE ADVECTION TERM
 (FOR PURE FINITE-DIFFERENCE OPTION, MIXELM=0) 
 = 0.8140E-01(WHEN MIN. R.F.=1)  AT K=   3, I=   2, J=  32


 TOTAL NUMBER OF POINT SOURCES/SINKS PRESENT IN THE FLOW MODEL =   240

 MAXIMUM STEPSIZE WHICH MEETS STABILITY CRITERION OF THE SINK & SOURCE TERM
 = 0.1000E+31(WHEN MIN. R.F.=1)  AT K=   0, I=   0, J=   0

 MAXIMUM STEPSIZE WHICH MEETS STABILITY CRITERION OF THE DISPERSION TERM
 = 0.5607E-02(WHEN MIN. R.F.=1)  AT K=   3, I=   2, J=  32
     1 CALLS TO GCG PACKAGE FOR TRANSPORT TIME STEP   5 IN FLOW TIME STEP  54 STRESS PERIOD   2
    13 TOTAL ITERATIONS
 
 SOLVING FOR HEAD 
 FLOW MODEL IS TRANSIENT
 FLOW MODEL CONTAINS CONSTANT-HEAD CELLS


 MAXIMUM STEPSIZE DURING WHICH ANY PARTICLE CANNOT MOVE MORE THAN ONE CELL
 = 0.1188    (WHEN MIN. R.F.=1)  AT K=   3, I=   2, J=  33

 MAXIMUM STEPSIZE WHICH MEETS STABILITY CRITERION OF THE ADVECTION TERM
 (FOR PURE FINITE-DIFFERENCE OPTION, MIXELM=0) 
 = 0.8140E-01(WHEN MIN. R.F.=1)  AT K=   3, I=   2, J=  32


 TOTAL NUMBER OF POINT SOURCES/SINKS PRESENT IN THE FLOW MODEL =   240

 MAXIMUM STEPSIZE WHICH MEETS STABILITY CRITERION OF THE SINK & SOURCE TERM
 = 0.1000E+31(WHEN MIN. R.F.=1)  AT K=   0, I=   0, J=   0

 MAXIMUM STEPSIZE WHICH MEETS STABILITY CRITERION OF THE DISPERSION TERM
 = 0.5607E-02(WHEN MIN. R.F.=1)  AT K=   3, I=   2, J=  32
     1 CALLS TO GCG PACKAGE FOR TRANSPORT TIME STEP   6 IN FLOW TIME STEP  54 STRESS PERIOD   2
    13 TOTAL ITERATIONS
 
 SOLVING FOR HEAD 
 FLOW MODEL IS TRANSIENT
 FLOW MODEL CONTAINS CONSTANT-HEAD CELLS


 MAXIMUM STEPSIZE DURING WHICH ANY PARTICLE CANNOT MOVE MORE THAN ONE CELL
 = 0.1188    (WHEN MIN. R.F.=1)  AT K=   3, I=   2, J=  33

 MAXIMUM STEPSIZE WHICH MEETS STABILITY CRITERION OF THE ADVECTION TERM
 (FOR PURE FINITE-DIFFERENCE OPTION, MIXELM=0) 
 = 0.8140E-01(WHEN MIN. R.F.=1)  AT K=   3, I=   2, J=  32


 TOTAL NUMBER OF POINT SOURCES/SINKS PRESENT IN THE FLOW MODEL =   240

 MAXIMUM STEPSIZE WHICH MEETS STABILITY CRITERION OF THE SINK & SOURCE TERM
 = 0.1000E+31(WHEN MIN. R.F.=1)  AT K=   0, I=   0, J=   0

 MAXIMUM STEPSIZE WHICH MEETS STABILITY CRITERION OF THE DISPERSION TERM
 = 0.5607E-02(WHEN MIN. R.F.=1)  AT K=   3, I=   2, J=  32
     1 CALLS TO GCG PACKAGE FOR TRANSPORT TIME STEP   7 IN FLOW TIME STEP  54 STRESS PERIOD   2
    13 TOTAL ITERATIONS
 
 SOLVING FOR HEAD 
 FLOW MODEL IS TRANSIENT
 FLOW MODEL CONTAINS CONSTANT-HEAD CELLS


 MAXIMUM STEPSIZE DURING WHICH ANY PARTICLE CANNOT MOVE MORE THAN ONE CELL
 = 0.1188    (WHEN MIN. R.F.=1)  AT K=   3, I=   2, J=  33

 MAXIMUM STEPSIZE WHICH MEETS STABILITY CRITERION OF THE ADVECTION TERM
 (FOR PURE FINITE-DIFFERENCE OPTION, MIXELM=0) 
 = 0.8140E-01(WHEN MIN. R.F.=1)  AT K=   3, I=   2, J=  32


 TOTAL NUMBER OF POINT SOURCES/SINKS PRESENT IN THE FLOW MODEL =   240

 MAXIMUM STEPSIZE WHICH MEETS STABILITY CRITERION OF THE SINK & SOURCE TERM
 = 0.1000E+31(WHEN MIN. R.F.=1)  AT K=   0, I=   0, J=   0

 MAXIMUM STEPSIZE WHICH MEETS STABILITY CRITERION OF THE DISPERSION TERM
 = 0.5607E-02(WHEN MIN. R.F.=1)  AT K=   3, I=   2, J=  32
     1 CALLS TO GCG PACKAGE FOR TRANSPORT TIME STEP   8 IN FLOW TIME STEP  54 STRESS PERIOD   2
    13 TOTAL ITERATIONS
 
 SOLVING FOR HEAD 
 FLOW MODEL IS TRANSIENT
 FLOW MODEL CONTAINS CONSTANT-HEAD CELLS


 MAXIMUM STEPSIZE DURING WHICH ANY PARTICLE CANNOT MOVE MORE THAN ONE CELL
 = 0.1188    (WHEN MIN. R.F.=1)  AT K=   3, I=   2, J=  33

 MAXIMUM STEPSIZE WHICH MEETS STABILITY CRITERION OF THE ADVECTION TERM
 (FOR PURE FINITE-DIFFERENCE OPTION, MIXELM=0) 
 = 0.8140E-01(WHEN MIN. R.F.=1)  AT K=   3, I=   2, J=  32


 TOTAL NUMBER OF POINT SOURCES/SINKS PRESENT IN THE FLOW MODEL =   240

 MAXIMUM STEPSIZE WHICH MEETS STABILITY CRITERION OF THE SINK & SOURCE TERM
 = 0.1000E+31(WHEN MIN. R.F.=1)  AT K=   0, I=   0, J=   0

 MAXIMUM STEPSIZE WHICH MEETS STABILITY CRITERION OF THE DISPERSION TERM
 = 0.5607E-02(WHEN MIN. R.F.=1)  AT K=   3, I=   2, J=  32
     1 CALLS TO GCG PACKAGE FOR TRANSPORT TIME STEP   9 IN FLOW TIME STEP  54 STRESS PERIOD   2
    13 TOTAL ITERATIONS
 
 SOLVING FOR HEAD 
 FLOW MODEL IS TRANSIENT
 FLOW MODEL CONTAINS CONSTANT-HEAD CELLS


 MAXIMUM STEPSIZE DURING WHICH ANY PARTICLE CANNOT MOVE MORE THAN ONE CELL
 = 0.1188    (WHEN MIN. R.F.=1)  AT K=   3, I=   2, J=  33

 MAXIMUM STEPSIZE WHICH MEETS STABILITY CRITERION OF THE ADVECTION TERM
 (FOR PURE FINITE-DIFFERENCE OPTION, MIXELM=0) 
 = 0.8140E-01(WHEN MIN. R.F.=1)  AT K=   3, I=   2, J=  32


 TOTAL NUMBER OF POINT SOURCES/SINKS PRESENT IN THE FLOW MODEL =   240

 MAXIMUM STEPSIZE WHICH MEETS STABILITY CRITERION OF THE SINK & SOURCE TERM
 = 0.1000E+31(WHEN MIN. R.F.=1)  AT K=   0, I=   0, J=   0

 MAXIMUM STEPSIZE WHICH MEETS STABILITY CRITERION OF THE DISPERSION TERM
 = 0.5607E-02(WHEN MIN. R.F.=1)  AT K=   3, I=   2, J=  32
     1 CALLS TO GCG PACKAGE FOR TRANSPORT TIME STEP  10 IN FLOW TIME STEP  54 STRESS PERIOD   2
    13 TOTAL ITERATIONS



 >>>>>>>>>>>>>>>>>>>>>>>>>>>>>>>>>>>>>>>>>>>>>>>>>>>>>>>FOR COMPONENT NO. 01<<<<<<<<<<<<<<<<<<<<<<<<<<<<<<<<<<<<<<<<<<<<<<<<<<<<<<<


                                            -------------------------------------------
                                                      TRANSPORT STEP NO.   10
                                            -------------------------------------------

 TOTAL ELAPSED TIME SINCE BEGINNING OF SIMULATION =   54.89078    D   
 .....................................................................

                     CUMULATIVE MASS BUDGETS AT END OF TRANSPORT STEP   10, TIME STEP   54, STRESS PERIOD    2
                     ------------------------------------------------------------------------------------------

                                                             IN                           OUT
                                                      ----------------             ----------------
                               CONSTANT CONCENTRATION:    9200.886                   -4715.612    
                                        CONSTANT HEAD:    0.000000                    0.000000    
                               MASS STOR (FLOW MODEL):   0.1266121E-01              -0.3328414E-02
                                MASS STORAGE (SOLUTE):    2.333548                   -4487.620    
                            ---------------------------------------------------------------------------
                                              [TOTAL]:    9203.232     KG            -9203.235     KG  

                                                          NET (IN - OUT):  -0.2855671E-02
                                                   DISCREPANCY (PERCENT):  -0.3102899E-04
 
 SOLVING FOR HEAD 
 FLOW MODEL IS TRANSIENT
 FLOW MODEL CONTAINS CONSTANT-HEAD CELLS


 MAXIMUM STEPSIZE DURING WHICH ANY PARTICLE CANNOT MOVE MORE THAN ONE CELL
 = 0.1188    (WHEN MIN. R.F.=1)  AT K=   3, I=   2, J=  33

 MAXIMUM STEPSIZE WHICH MEETS STABILITY CRITERION OF THE ADVECTION TERM
 (FOR PURE FINITE-DIFFERENCE OPTION, MIXELM=0) 
 = 0.8140E-01(WHEN MIN. R.F.=1)  AT K=   3, I=   2, J=  32


 TOTAL NUMBER OF POINT SOURCES/SINKS PRESENT IN THE FLOW MODEL =   240

 MAXIMUM STEPSIZE WHICH MEETS STABILITY CRITERION OF THE SINK & SOURCE TERM
 = 0.1000E+31(WHEN MIN. R.F.=1)  AT K=   0, I=   0, J=   0

 MAXIMUM STEPSIZE WHICH MEETS STABILITY CRITERION OF THE DISPERSION TERM
 = 0.5607E-02(WHEN MIN. R.F.=1)  AT K=   3, I=   2, J=  32
     1 CALLS TO GCG PACKAGE FOR TRANSPORT TIME STEP  11 IN FLOW TIME STEP  54 STRESS PERIOD   2
    13 TOTAL ITERATIONS
 
 SOLVING FOR HEAD 
 FLOW MODEL IS TRANSIENT
 FLOW MODEL CONTAINS CONSTANT-HEAD CELLS


 MAXIMUM STEPSIZE DURING WHICH ANY PARTICLE CANNOT MOVE MORE THAN ONE CELL
 = 0.1188    (WHEN MIN. R.F.=1)  AT K=   3, I=   2, J=  33

 MAXIMUM STEPSIZE WHICH MEETS STABILITY CRITERION OF THE ADVECTION TERM
 (FOR PURE FINITE-DIFFERENCE OPTION, MIXELM=0) 
 = 0.8140E-01(WHEN MIN. R.F.=1)  AT K=   3, I=   2, J=  32


 TOTAL NUMBER OF POINT SOURCES/SINKS PRESENT IN THE FLOW MODEL =   240

 MAXIMUM STEPSIZE WHICH MEETS STABILITY CRITERION OF THE SINK & SOURCE TERM
 = 0.1000E+31(WHEN MIN. R.F.=1)  AT K=   0, I=   0, J=   0

 MAXIMUM STEPSIZE WHICH MEETS STABILITY CRITERION OF THE DISPERSION TERM
 = 0.5607E-02(WHEN MIN. R.F.=1)  AT K=   3, I=   2, J=  32
     1 CALLS TO GCG PACKAGE FOR TRANSPORT TIME STEP  12 IN FLOW TIME STEP  54 STRESS PERIOD   2
     7 TOTAL ITERATIONS
  MAXIMUM CONCENTRATION CHANGES FOR EACH ITERATION:
  MAX. CHANGE LAYER,ROW,COL MAX. CHANGE LAYER,ROW,COL MAX. CHANGE LAYER,ROW,COL MAX. CHANGE LAYER,ROW,COL MAX. CHANGE LAYER,ROW,COL
 ------------------------------------------------------------------------------------------------------------------------------------
   0.1570E-03 ( 13,  2, 60)  0.1318E-04 (  6,  2, 60)  0.1925E-05 (  5,  2, 57)  0.5336E-06 (  3,  2, 33)  0.2523E-06 (  4,  2, 33)
   0.1055E-06 (  3,  2, 33)  0.3021E-07 (  2,  2, 33)


                                          ================================================
                                                         FROM TIME =   55.000     TO    56.000    

 
 SOLVING FOR HEAD 
 FLOW MODEL IS TRANSIENT
 FLOW MODEL CONTAINS CONSTANT-HEAD CELLS


 MAXIMUM STEPSIZE DURING WHICH ANY PARTICLE CANNOT MOVE MORE THAN ONE CELL
 = 0.1188    (WHEN MIN. R.F.=1)  AT K=   3, I=   2, J=  33

 MAXIMUM STEPSIZE WHICH MEETS STABILITY CRITERION OF THE ADVECTION TERM
 (FOR PURE FINITE-DIFFERENCE OPTION, MIXELM=0) 
 = 0.8140E-01(WHEN MIN. R.F.=1)  AT K=   3, I=   2, J=  32


 TOTAL NUMBER OF POINT SOURCES/SINKS PRESENT IN THE FLOW MODEL =   240

 MAXIMUM STEPSIZE WHICH MEETS STABILITY CRITERION OF THE SINK & SOURCE TERM
 = 0.1000E+31(WHEN MIN. R.F.=1)  AT K=   0, I=   0, J=   0

 MAXIMUM STEPSIZE WHICH MEETS STABILITY CRITERION OF THE DISPERSION TERM
 = 0.5607E-02(WHEN MIN. R.F.=1)  AT K=   3, I=   2, J=  32


     1 CALLS TO GCG PACKAGE FOR TRANSPORT TIME STEP   1 IN FLOW TIME STEP  55 STRESS PERIOD   2
    13 TOTAL ITERATIONS

 NO OUTPUT CONTROL FOR STRESS PERIOD    2   TIME STEP  55
 
 SOLVING FOR HEAD 
 FLOW MODEL IS TRANSIENT
 FLOW MODEL CONTAINS CONSTANT-HEAD CELLS


 MAXIMUM STEPSIZE DURING WHICH ANY PARTICLE CANNOT MOVE MORE THAN ONE CELL
 = 0.1188    (WHEN MIN. R.F.=1)  AT K=   3, I=   2, J=  33

 MAXIMUM STEPSIZE WHICH MEETS STABILITY CRITERION OF THE ADVECTION TERM
 (FOR PURE FINITE-DIFFERENCE OPTION, MIXELM=0) 
 = 0.8140E-01(WHEN MIN. R.F.=1)  AT K=   3, I=   2, J=  32


 TOTAL NUMBER OF POINT SOURCES/SINKS PRESENT IN THE FLOW MODEL =   240

 MAXIMUM STEPSIZE WHICH MEETS STABILITY CRITERION OF THE SINK & SOURCE TERM
 = 0.1000E+31(WHEN MIN. R.F.=1)  AT K=   0, I=   0, J=   0

 MAXIMUM STEPSIZE WHICH MEETS STABILITY CRITERION OF THE DISPERSION TERM
 = 0.5607E-02(WHEN MIN. R.F.=1)  AT K=   3, I=   2, J=  32
     1 CALLS TO GCG PACKAGE FOR TRANSPORT TIME STEP   2 IN FLOW TIME STEP  55 STRESS PERIOD   2
    13 TOTAL ITERATIONS
 
 SOLVING FOR HEAD 
 FLOW MODEL IS TRANSIENT
 FLOW MODEL CONTAINS CONSTANT-HEAD CELLS


 MAXIMUM STEPSIZE DURING WHICH ANY PARTICLE CANNOT MOVE MORE THAN ONE CELL
 = 0.1188    (WHEN MIN. R.F.=1)  AT K=   3, I=   2, J=  33

 MAXIMUM STEPSIZE WHICH MEETS STABILITY CRITERION OF THE ADVECTION TERM
 (FOR PURE FINITE-DIFFERENCE OPTION, MIXELM=0) 
 = 0.8140E-01(WHEN MIN. R.F.=1)  AT K=   3, I=   2, J=  32


 TOTAL NUMBER OF POINT SOURCES/SINKS PRESENT IN THE FLOW MODEL =   240

 MAXIMUM STEPSIZE WHICH MEETS STABILITY CRITERION OF THE SINK & SOURCE TERM
 = 0.1000E+31(WHEN MIN. R.F.=1)  AT K=   0, I=   0, J=   0

 MAXIMUM STEPSIZE WHICH MEETS STABILITY CRITERION OF THE DISPERSION TERM
 = 0.5607E-02(WHEN MIN. R.F.=1)  AT K=   3, I=   2, J=  32
     1 CALLS TO GCG PACKAGE FOR TRANSPORT TIME STEP   3 IN FLOW TIME STEP  55 STRESS PERIOD   2
    13 TOTAL ITERATIONS
 
 SOLVING FOR HEAD 
 FLOW MODEL IS TRANSIENT
 FLOW MODEL CONTAINS CONSTANT-HEAD CELLS


 MAXIMUM STEPSIZE DURING WHICH ANY PARTICLE CANNOT MOVE MORE THAN ONE CELL
 = 0.1188    (WHEN MIN. R.F.=1)  AT K=   3, I=   2, J=  33

 MAXIMUM STEPSIZE WHICH MEETS STABILITY CRITERION OF THE ADVECTION TERM
 (FOR PURE FINITE-DIFFERENCE OPTION, MIXELM=0) 
 = 0.8140E-01(WHEN MIN. R.F.=1)  AT K=   3, I=   2, J=  32


 TOTAL NUMBER OF POINT SOURCES/SINKS PRESENT IN THE FLOW MODEL =   240

 MAXIMUM STEPSIZE WHICH MEETS STABILITY CRITERION OF THE SINK & SOURCE TERM
 = 0.1000E+31(WHEN MIN. R.F.=1)  AT K=   0, I=   0, J=   0

 MAXIMUM STEPSIZE WHICH MEETS STABILITY CRITERION OF THE DISPERSION TERM
 = 0.5607E-02(WHEN MIN. R.F.=1)  AT K=   3, I=   2, J=  32
     1 CALLS TO GCG PACKAGE FOR TRANSPORT TIME STEP   4 IN FLOW TIME STEP  55 STRESS PERIOD   2
    13 TOTAL ITERATIONS
 
 SOLVING FOR HEAD 
 FLOW MODEL IS TRANSIENT
 FLOW MODEL CONTAINS CONSTANT-HEAD CELLS


 MAXIMUM STEPSIZE DURING WHICH ANY PARTICLE CANNOT MOVE MORE THAN ONE CELL
 = 0.1188    (WHEN MIN. R.F.=1)  AT K=   3, I=   2, J=  33

 MAXIMUM STEPSIZE WHICH MEETS STABILITY CRITERION OF THE ADVECTION TERM
 (FOR PURE FINITE-DIFFERENCE OPTION, MIXELM=0) 
 = 0.8140E-01(WHEN MIN. R.F.=1)  AT K=   3, I=   2, J=  32


 TOTAL NUMBER OF POINT SOURCES/SINKS PRESENT IN THE FLOW MODEL =   240

 MAXIMUM STEPSIZE WHICH MEETS STABILITY CRITERION OF THE SINK & SOURCE TERM
 = 0.1000E+31(WHEN MIN. R.F.=1)  AT K=   0, I=   0, J=   0

 MAXIMUM STEPSIZE WHICH MEETS STABILITY CRITERION OF THE DISPERSION TERM
 = 0.5607E-02(WHEN MIN. R.F.=1)  AT K=   3, I=   2, J=  32
     1 CALLS TO GCG PACKAGE FOR TRANSPORT TIME STEP   5 IN FLOW TIME STEP  55 STRESS PERIOD   2
    12 TOTAL ITERATIONS
 
 SOLVING FOR HEAD 
 FLOW MODEL IS TRANSIENT
 FLOW MODEL CONTAINS CONSTANT-HEAD CELLS


 MAXIMUM STEPSIZE DURING WHICH ANY PARTICLE CANNOT MOVE MORE THAN ONE CELL
 = 0.1188    (WHEN MIN. R.F.=1)  AT K=   3, I=   2, J=  33

 MAXIMUM STEPSIZE WHICH MEETS STABILITY CRITERION OF THE ADVECTION TERM
 (FOR PURE FINITE-DIFFERENCE OPTION, MIXELM=0) 
 = 0.8140E-01(WHEN MIN. R.F.=1)  AT K=   3, I=   2, J=  32


 TOTAL NUMBER OF POINT SOURCES/SINKS PRESENT IN THE FLOW MODEL =   240

 MAXIMUM STEPSIZE WHICH MEETS STABILITY CRITERION OF THE SINK & SOURCE TERM
 = 0.1000E+31(WHEN MIN. R.F.=1)  AT K=   0, I=   0, J=   0

 MAXIMUM STEPSIZE WHICH MEETS STABILITY CRITERION OF THE DISPERSION TERM
 = 0.5607E-02(WHEN MIN. R.F.=1)  AT K=   3, I=   2, J=  32
     1 CALLS TO GCG PACKAGE FOR TRANSPORT TIME STEP   6 IN FLOW TIME STEP  55 STRESS PERIOD   2
    13 TOTAL ITERATIONS
 
 SOLVING FOR HEAD 
 FLOW MODEL IS TRANSIENT
 FLOW MODEL CONTAINS CONSTANT-HEAD CELLS


 MAXIMUM STEPSIZE DURING WHICH ANY PARTICLE CANNOT MOVE MORE THAN ONE CELL
 = 0.1188    (WHEN MIN. R.F.=1)  AT K=   3, I=   2, J=  33

 MAXIMUM STEPSIZE WHICH MEETS STABILITY CRITERION OF THE ADVECTION TERM
 (FOR PURE FINITE-DIFFERENCE OPTION, MIXELM=0) 
 = 0.8140E-01(WHEN MIN. R.F.=1)  AT K=   3, I=   2, J=  32


 TOTAL NUMBER OF POINT SOURCES/SINKS PRESENT IN THE FLOW MODEL =   240

 MAXIMUM STEPSIZE WHICH MEETS STABILITY CRITERION OF THE SINK & SOURCE TERM
 = 0.1000E+31(WHEN MIN. R.F.=1)  AT K=   0, I=   0, J=   0

 MAXIMUM STEPSIZE WHICH MEETS STABILITY CRITERION OF THE DISPERSION TERM
 = 0.5607E-02(WHEN MIN. R.F.=1)  AT K=   3, I=   2, J=  32
     1 CALLS TO GCG PACKAGE FOR TRANSPORT TIME STEP   7 IN FLOW TIME STEP  55 STRESS PERIOD   2
    13 TOTAL ITERATIONS
 
 SOLVING FOR HEAD 
 FLOW MODEL IS TRANSIENT
 FLOW MODEL CONTAINS CONSTANT-HEAD CELLS


 MAXIMUM STEPSIZE DURING WHICH ANY PARTICLE CANNOT MOVE MORE THAN ONE CELL
 = 0.1188    (WHEN MIN. R.F.=1)  AT K=   3, I=   2, J=  33

 MAXIMUM STEPSIZE WHICH MEETS STABILITY CRITERION OF THE ADVECTION TERM
 (FOR PURE FINITE-DIFFERENCE OPTION, MIXELM=0) 
 = 0.8140E-01(WHEN MIN. R.F.=1)  AT K=   3, I=   2, J=  32


 TOTAL NUMBER OF POINT SOURCES/SINKS PRESENT IN THE FLOW MODEL =   240

 MAXIMUM STEPSIZE WHICH MEETS STABILITY CRITERION OF THE SINK & SOURCE TERM
 = 0.1000E+31(WHEN MIN. R.F.=1)  AT K=   0, I=   0, J=   0

 MAXIMUM STEPSIZE WHICH MEETS STABILITY CRITERION OF THE DISPERSION TERM
 = 0.5607E-02(WHEN MIN. R.F.=1)  AT K=   3, I=   2, J=  32
     1 CALLS TO GCG PACKAGE FOR TRANSPORT TIME STEP   8 IN FLOW TIME STEP  55 STRESS PERIOD   2
    12 TOTAL ITERATIONS
 
 SOLVING FOR HEAD 
 FLOW MODEL IS TRANSIENT
 FLOW MODEL CONTAINS CONSTANT-HEAD CELLS


 MAXIMUM STEPSIZE DURING WHICH ANY PARTICLE CANNOT MOVE MORE THAN ONE CELL
 = 0.1188    (WHEN MIN. R.F.=1)  AT K=   3, I=   2, J=  33

 MAXIMUM STEPSIZE WHICH MEETS STABILITY CRITERION OF THE ADVECTION TERM
 (FOR PURE FINITE-DIFFERENCE OPTION, MIXELM=0) 
 = 0.8140E-01(WHEN MIN. R.F.=1)  AT K=   3, I=   2, J=  32


 TOTAL NUMBER OF POINT SOURCES/SINKS PRESENT IN THE FLOW MODEL =   240

 MAXIMUM STEPSIZE WHICH MEETS STABILITY CRITERION OF THE SINK & SOURCE TERM
 = 0.1000E+31(WHEN MIN. R.F.=1)  AT K=   0, I=   0, J=   0

 MAXIMUM STEPSIZE WHICH MEETS STABILITY CRITERION OF THE DISPERSION TERM
 = 0.5607E-02(WHEN MIN. R.F.=1)  AT K=   3, I=   2, J=  32
     1 CALLS TO GCG PACKAGE FOR TRANSPORT TIME STEP   9 IN FLOW TIME STEP  55 STRESS PERIOD   2
    13 TOTAL ITERATIONS
 
 SOLVING FOR HEAD 
 FLOW MODEL IS TRANSIENT
 FLOW MODEL CONTAINS CONSTANT-HEAD CELLS


 MAXIMUM STEPSIZE DURING WHICH ANY PARTICLE CANNOT MOVE MORE THAN ONE CELL
 = 0.1188    (WHEN MIN. R.F.=1)  AT K=   3, I=   2, J=  33

 MAXIMUM STEPSIZE WHICH MEETS STABILITY CRITERION OF THE ADVECTION TERM
 (FOR PURE FINITE-DIFFERENCE OPTION, MIXELM=0) 
 = 0.8140E-01(WHEN MIN. R.F.=1)  AT K=   3, I=   2, J=  32


 TOTAL NUMBER OF POINT SOURCES/SINKS PRESENT IN THE FLOW MODEL =   240

 MAXIMUM STEPSIZE WHICH MEETS STABILITY CRITERION OF THE SINK & SOURCE TERM
 = 0.1000E+31(WHEN MIN. R.F.=1)  AT K=   0, I=   0, J=   0

 MAXIMUM STEPSIZE WHICH MEETS STABILITY CRITERION OF THE DISPERSION TERM
 = 0.5607E-02(WHEN MIN. R.F.=1)  AT K=   3, I=   2, J=  32
     1 CALLS TO GCG PACKAGE FOR TRANSPORT TIME STEP  10 IN FLOW TIME STEP  55 STRESS PERIOD   2
    12 TOTAL ITERATIONS



 >>>>>>>>>>>>>>>>>>>>>>>>>>>>>>>>>>>>>>>>>>>>>>>>>>>>>>>FOR COMPONENT NO. 01<<<<<<<<<<<<<<<<<<<<<<<<<<<<<<<<<<<<<<<<<<<<<<<<<<<<<<<


                                            -------------------------------------------
                                                      TRANSPORT STEP NO.   10
                                            -------------------------------------------

 TOTAL ELAPSED TIME SINCE BEGINNING OF SIMULATION =   55.89076    D   
 .....................................................................

                     CUMULATIVE MASS BUDGETS AT END OF TRANSPORT STEP   10, TIME STEP   55, STRESS PERIOD    2
                     ------------------------------------------------------------------------------------------

                                                             IN                           OUT
                                                      ----------------             ----------------
                               CONSTANT CONCENTRATION:    9312.071                   -4808.057    
                                        CONSTANT HEAD:    0.000000                    0.000000    
                               MASS STOR (FLOW MODEL):   0.1267903E-01              -0.3333434E-02
                                MASS STORAGE (SOLUTE):    2.607837                   -4506.633    
                            ---------------------------------------------------------------------------
                                              [TOTAL]:    9314.691     KG            -9314.694     KG  

                                                          NET (IN - OUT):  -0.2872287E-02
                                                   DISCREPANCY (PERCENT):  -0.3083609E-04
 
 SOLVING FOR HEAD 
 FLOW MODEL IS TRANSIENT
 FLOW MODEL CONTAINS CONSTANT-HEAD CELLS


 MAXIMUM STEPSIZE DURING WHICH ANY PARTICLE CANNOT MOVE MORE THAN ONE CELL
 = 0.1188    (WHEN MIN. R.F.=1)  AT K=   3, I=   2, J=  33

 MAXIMUM STEPSIZE WHICH MEETS STABILITY CRITERION OF THE ADVECTION TERM
 (FOR PURE FINITE-DIFFERENCE OPTION, MIXELM=0) 
 = 0.8140E-01(WHEN MIN. R.F.=1)  AT K=   3, I=   2, J=  32


 TOTAL NUMBER OF POINT SOURCES/SINKS PRESENT IN THE FLOW MODEL =   240

 MAXIMUM STEPSIZE WHICH MEETS STABILITY CRITERION OF THE SINK & SOURCE TERM
 = 0.1000E+31(WHEN MIN. R.F.=1)  AT K=   0, I=   0, J=   0

 MAXIMUM STEPSIZE WHICH MEETS STABILITY CRITERION OF THE DISPERSION TERM
 = 0.5607E-02(WHEN MIN. R.F.=1)  AT K=   3, I=   2, J=  32
     1 CALLS TO GCG PACKAGE FOR TRANSPORT TIME STEP  11 IN FLOW TIME STEP  55 STRESS PERIOD   2
    13 TOTAL ITERATIONS
 
 SOLVING FOR HEAD 
 FLOW MODEL IS TRANSIENT
 FLOW MODEL CONTAINS CONSTANT-HEAD CELLS


 MAXIMUM STEPSIZE DURING WHICH ANY PARTICLE CANNOT MOVE MORE THAN ONE CELL
 = 0.1188    (WHEN MIN. R.F.=1)  AT K=   3, I=   2, J=  33

 MAXIMUM STEPSIZE WHICH MEETS STABILITY CRITERION OF THE ADVECTION TERM
 (FOR PURE FINITE-DIFFERENCE OPTION, MIXELM=0) 
 = 0.8140E-01(WHEN MIN. R.F.=1)  AT K=   3, I=   2, J=  32


 TOTAL NUMBER OF POINT SOURCES/SINKS PRESENT IN THE FLOW MODEL =   240

 MAXIMUM STEPSIZE WHICH MEETS STABILITY CRITERION OF THE SINK & SOURCE TERM
 = 0.1000E+31(WHEN MIN. R.F.=1)  AT K=   0, I=   0, J=   0

 MAXIMUM STEPSIZE WHICH MEETS STABILITY CRITERION OF THE DISPERSION TERM
 = 0.5607E-02(WHEN MIN. R.F.=1)  AT K=   3, I=   2, J=  32
     1 CALLS TO GCG PACKAGE FOR TRANSPORT TIME STEP  12 IN FLOW TIME STEP  55 STRESS PERIOD   2
     7 TOTAL ITERATIONS
  MAXIMUM CONCENTRATION CHANGES FOR EACH ITERATION:
  MAX. CHANGE LAYER,ROW,COL MAX. CHANGE LAYER,ROW,COL MAX. CHANGE LAYER,ROW,COL MAX. CHANGE LAYER,ROW,COL MAX. CHANGE LAYER,ROW,COL
 ------------------------------------------------------------------------------------------------------------------------------------
   0.1550E-03 ( 14,  2, 57)  0.1272E-04 (  6,  2, 60)  0.1859E-05 (  5,  2, 57)  0.5114E-06 (  3,  2, 33)  0.2437E-06 (  4,  2, 33)
   0.1028E-06 (  3,  2, 33)  0.2924E-07 (  2,  2, 33)


                                          ================================================
                                                         FROM TIME =   56.000     TO    57.000    

 
 SOLVING FOR HEAD 
 FLOW MODEL IS TRANSIENT
 FLOW MODEL CONTAINS CONSTANT-HEAD CELLS


 MAXIMUM STEPSIZE DURING WHICH ANY PARTICLE CANNOT MOVE MORE THAN ONE CELL
 = 0.1188    (WHEN MIN. R.F.=1)  AT K=   3, I=   2, J=  33

 MAXIMUM STEPSIZE WHICH MEETS STABILITY CRITERION OF THE ADVECTION TERM
 (FOR PURE FINITE-DIFFERENCE OPTION, MIXELM=0) 
 = 0.8140E-01(WHEN MIN. R.F.=1)  AT K=   3, I=   2, J=  32


 TOTAL NUMBER OF POINT SOURCES/SINKS PRESENT IN THE FLOW MODEL =   240

 MAXIMUM STEPSIZE WHICH MEETS STABILITY CRITERION OF THE SINK & SOURCE TERM
 = 0.1000E+31(WHEN MIN. R.F.=1)  AT K=   0, I=   0, J=   0

 MAXIMUM STEPSIZE WHICH MEETS STABILITY CRITERION OF THE DISPERSION TERM
 = 0.5607E-02(WHEN MIN. R.F.=1)  AT K=   3, I=   2, J=  32


     1 CALLS TO GCG PACKAGE FOR TRANSPORT TIME STEP   1 IN FLOW TIME STEP  56 STRESS PERIOD   2
    12 TOTAL ITERATIONS

 NO OUTPUT CONTROL FOR STRESS PERIOD    2   TIME STEP  56
 
 SOLVING FOR HEAD 
 FLOW MODEL IS TRANSIENT
 FLOW MODEL CONTAINS CONSTANT-HEAD CELLS


 MAXIMUM STEPSIZE DURING WHICH ANY PARTICLE CANNOT MOVE MORE THAN ONE CELL
 = 0.1188    (WHEN MIN. R.F.=1)  AT K=   3, I=   2, J=  33

 MAXIMUM STEPSIZE WHICH MEETS STABILITY CRITERION OF THE ADVECTION TERM
 (FOR PURE FINITE-DIFFERENCE OPTION, MIXELM=0) 
 = 0.8140E-01(WHEN MIN. R.F.=1)  AT K=   3, I=   2, J=  32


 TOTAL NUMBER OF POINT SOURCES/SINKS PRESENT IN THE FLOW MODEL =   240

 MAXIMUM STEPSIZE WHICH MEETS STABILITY CRITERION OF THE SINK & SOURCE TERM
 = 0.1000E+31(WHEN MIN. R.F.=1)  AT K=   0, I=   0, J=   0

 MAXIMUM STEPSIZE WHICH MEETS STABILITY CRITERION OF THE DISPERSION TERM
 = 0.5607E-02(WHEN MIN. R.F.=1)  AT K=   3, I=   2, J=  32
     1 CALLS TO GCG PACKAGE FOR TRANSPORT TIME STEP   2 IN FLOW TIME STEP  56 STRESS PERIOD   2
    13 TOTAL ITERATIONS
 
 SOLVING FOR HEAD 
 FLOW MODEL IS TRANSIENT
 FLOW MODEL CONTAINS CONSTANT-HEAD CELLS


 MAXIMUM STEPSIZE DURING WHICH ANY PARTICLE CANNOT MOVE MORE THAN ONE CELL
 = 0.1188    (WHEN MIN. R.F.=1)  AT K=   3, I=   2, J=  33

 MAXIMUM STEPSIZE WHICH MEETS STABILITY CRITERION OF THE ADVECTION TERM
 (FOR PURE FINITE-DIFFERENCE OPTION, MIXELM=0) 
 = 0.8140E-01(WHEN MIN. R.F.=1)  AT K=   3, I=   2, J=  32


 TOTAL NUMBER OF POINT SOURCES/SINKS PRESENT IN THE FLOW MODEL =   240

 MAXIMUM STEPSIZE WHICH MEETS STABILITY CRITERION OF THE SINK & SOURCE TERM
 = 0.1000E+31(WHEN MIN. R.F.=1)  AT K=   0, I=   0, J=   0

 MAXIMUM STEPSIZE WHICH MEETS STABILITY CRITERION OF THE DISPERSION TERM
 = 0.5607E-02(WHEN MIN. R.F.=1)  AT K=   3, I=   2, J=  32
     1 CALLS TO GCG PACKAGE FOR TRANSPORT TIME STEP   3 IN FLOW TIME STEP  56 STRESS PERIOD   2
    12 TOTAL ITERATIONS
 
 SOLVING FOR HEAD 
 FLOW MODEL IS TRANSIENT
 FLOW MODEL CONTAINS CONSTANT-HEAD CELLS


 MAXIMUM STEPSIZE DURING WHICH ANY PARTICLE CANNOT MOVE MORE THAN ONE CELL
 = 0.1188    (WHEN MIN. R.F.=1)  AT K=   3, I=   2, J=  33

 MAXIMUM STEPSIZE WHICH MEETS STABILITY CRITERION OF THE ADVECTION TERM
 (FOR PURE FINITE-DIFFERENCE OPTION, MIXELM=0) 
 = 0.8140E-01(WHEN MIN. R.F.=1)  AT K=   3, I=   2, J=  32


 TOTAL NUMBER OF POINT SOURCES/SINKS PRESENT IN THE FLOW MODEL =   240

 MAXIMUM STEPSIZE WHICH MEETS STABILITY CRITERION OF THE SINK & SOURCE TERM
 = 0.1000E+31(WHEN MIN. R.F.=1)  AT K=   0, I=   0, J=   0

 MAXIMUM STEPSIZE WHICH MEETS STABILITY CRITERION OF THE DISPERSION TERM
 = 0.5607E-02(WHEN MIN. R.F.=1)  AT K=   3, I=   2, J=  32
     1 CALLS TO GCG PACKAGE FOR TRANSPORT TIME STEP   4 IN FLOW TIME STEP  56 STRESS PERIOD   2
    13 TOTAL ITERATIONS
 
 SOLVING FOR HEAD 
 FLOW MODEL IS TRANSIENT
 FLOW MODEL CONTAINS CONSTANT-HEAD CELLS


 MAXIMUM STEPSIZE DURING WHICH ANY PARTICLE CANNOT MOVE MORE THAN ONE CELL
 = 0.1188    (WHEN MIN. R.F.=1)  AT K=   3, I=   2, J=  33

 MAXIMUM STEPSIZE WHICH MEETS STABILITY CRITERION OF THE ADVECTION TERM
 (FOR PURE FINITE-DIFFERENCE OPTION, MIXELM=0) 
 = 0.8140E-01(WHEN MIN. R.F.=1)  AT K=   3, I=   2, J=  32


 TOTAL NUMBER OF POINT SOURCES/SINKS PRESENT IN THE FLOW MODEL =   240

 MAXIMUM STEPSIZE WHICH MEETS STABILITY CRITERION OF THE SINK & SOURCE TERM
 = 0.1000E+31(WHEN MIN. R.F.=1)  AT K=   0, I=   0, J=   0

 MAXIMUM STEPSIZE WHICH MEETS STABILITY CRITERION OF THE DISPERSION TERM
 = 0.5607E-02(WHEN MIN. R.F.=1)  AT K=   3, I=   2, J=  32
     1 CALLS TO GCG PACKAGE FOR TRANSPORT TIME STEP   5 IN FLOW TIME STEP  56 STRESS PERIOD   2
    12 TOTAL ITERATIONS
 
 SOLVING FOR HEAD 
 FLOW MODEL IS TRANSIENT
 FLOW MODEL CONTAINS CONSTANT-HEAD CELLS


 MAXIMUM STEPSIZE DURING WHICH ANY PARTICLE CANNOT MOVE MORE THAN ONE CELL
 = 0.1188    (WHEN MIN. R.F.=1)  AT K=   3, I=   2, J=  33

 MAXIMUM STEPSIZE WHICH MEETS STABILITY CRITERION OF THE ADVECTION TERM
 (FOR PURE FINITE-DIFFERENCE OPTION, MIXELM=0) 
 = 0.8140E-01(WHEN MIN. R.F.=1)  AT K=   3, I=   2, J=  32


 TOTAL NUMBER OF POINT SOURCES/SINKS PRESENT IN THE FLOW MODEL =   240

 MAXIMUM STEPSIZE WHICH MEETS STABILITY CRITERION OF THE SINK & SOURCE TERM
 = 0.1000E+31(WHEN MIN. R.F.=1)  AT K=   0, I=   0, J=   0

 MAXIMUM STEPSIZE WHICH MEETS STABILITY CRITERION OF THE DISPERSION TERM
 = 0.5606E-02(WHEN MIN. R.F.=1)  AT K=   3, I=   2, J=  32
     1 CALLS TO GCG PACKAGE FOR TRANSPORT TIME STEP   6 IN FLOW TIME STEP  56 STRESS PERIOD   2
    12 TOTAL ITERATIONS
 
 SOLVING FOR HEAD 
 FLOW MODEL IS TRANSIENT
 FLOW MODEL CONTAINS CONSTANT-HEAD CELLS


 MAXIMUM STEPSIZE DURING WHICH ANY PARTICLE CANNOT MOVE MORE THAN ONE CELL
 = 0.1188    (WHEN MIN. R.F.=1)  AT K=   3, I=   2, J=  33

 MAXIMUM STEPSIZE WHICH MEETS STABILITY CRITERION OF THE ADVECTION TERM
 (FOR PURE FINITE-DIFFERENCE OPTION, MIXELM=0) 
 = 0.8139E-01(WHEN MIN. R.F.=1)  AT K=   3, I=   2, J=  32


 TOTAL NUMBER OF POINT SOURCES/SINKS PRESENT IN THE FLOW MODEL =   240

 MAXIMUM STEPSIZE WHICH MEETS STABILITY CRITERION OF THE SINK & SOURCE TERM
 = 0.1000E+31(WHEN MIN. R.F.=1)  AT K=   0, I=   0, J=   0

 MAXIMUM STEPSIZE WHICH MEETS STABILITY CRITERION OF THE DISPERSION TERM
 = 0.5606E-02(WHEN MIN. R.F.=1)  AT K=   3, I=   2, J=  32
     1 CALLS TO GCG PACKAGE FOR TRANSPORT TIME STEP   7 IN FLOW TIME STEP  56 STRESS PERIOD   2
    12 TOTAL ITERATIONS
 
 SOLVING FOR HEAD 
 FLOW MODEL IS TRANSIENT
 FLOW MODEL CONTAINS CONSTANT-HEAD CELLS


 MAXIMUM STEPSIZE DURING WHICH ANY PARTICLE CANNOT MOVE MORE THAN ONE CELL
 = 0.1188    (WHEN MIN. R.F.=1)  AT K=   3, I=   2, J=  33

 MAXIMUM STEPSIZE WHICH MEETS STABILITY CRITERION OF THE ADVECTION TERM
 (FOR PURE FINITE-DIFFERENCE OPTION, MIXELM=0) 
 = 0.8139E-01(WHEN MIN. R.F.=1)  AT K=   3, I=   2, J=  32


 TOTAL NUMBER OF POINT SOURCES/SINKS PRESENT IN THE FLOW MODEL =   240

 MAXIMUM STEPSIZE WHICH MEETS STABILITY CRITERION OF THE SINK & SOURCE TERM
 = 0.1000E+31(WHEN MIN. R.F.=1)  AT K=   0, I=   0, J=   0

 MAXIMUM STEPSIZE WHICH MEETS STABILITY CRITERION OF THE DISPERSION TERM
 = 0.5606E-02(WHEN MIN. R.F.=1)  AT K=   3, I=   2, J=  32
     1 CALLS TO GCG PACKAGE FOR TRANSPORT TIME STEP   8 IN FLOW TIME STEP  56 STRESS PERIOD   2
    12 TOTAL ITERATIONS
 
 SOLVING FOR HEAD 
 FLOW MODEL IS TRANSIENT
 FLOW MODEL CONTAINS CONSTANT-HEAD CELLS


 MAXIMUM STEPSIZE DURING WHICH ANY PARTICLE CANNOT MOVE MORE THAN ONE CELL
 = 0.1188    (WHEN MIN. R.F.=1)  AT K=   3, I=   2, J=  33

 MAXIMUM STEPSIZE WHICH MEETS STABILITY CRITERION OF THE ADVECTION TERM
 (FOR PURE FINITE-DIFFERENCE OPTION, MIXELM=0) 
 = 0.8139E-01(WHEN MIN. R.F.=1)  AT K=   3, I=   2, J=  32


 TOTAL NUMBER OF POINT SOURCES/SINKS PRESENT IN THE FLOW MODEL =   240

 MAXIMUM STEPSIZE WHICH MEETS STABILITY CRITERION OF THE SINK & SOURCE TERM
 = 0.1000E+31(WHEN MIN. R.F.=1)  AT K=   0, I=   0, J=   0

 MAXIMUM STEPSIZE WHICH MEETS STABILITY CRITERION OF THE DISPERSION TERM
 = 0.5606E-02(WHEN MIN. R.F.=1)  AT K=   3, I=   2, J=  32
     1 CALLS TO GCG PACKAGE FOR TRANSPORT TIME STEP   9 IN FLOW TIME STEP  56 STRESS PERIOD   2
    12 TOTAL ITERATIONS
 
 SOLVING FOR HEAD 
 FLOW MODEL IS TRANSIENT
 FLOW MODEL CONTAINS CONSTANT-HEAD CELLS


 MAXIMUM STEPSIZE DURING WHICH ANY PARTICLE CANNOT MOVE MORE THAN ONE CELL
 = 0.1188    (WHEN MIN. R.F.=1)  AT K=   3, I=   2, J=  33

 MAXIMUM STEPSIZE WHICH MEETS STABILITY CRITERION OF THE ADVECTION TERM
 (FOR PURE FINITE-DIFFERENCE OPTION, MIXELM=0) 
 = 0.8139E-01(WHEN MIN. R.F.=1)  AT K=   3, I=   2, J=  32


 TOTAL NUMBER OF POINT SOURCES/SINKS PRESENT IN THE FLOW MODEL =   240

 MAXIMUM STEPSIZE WHICH MEETS STABILITY CRITERION OF THE SINK & SOURCE TERM
 = 0.1000E+31(WHEN MIN. R.F.=1)  AT K=   0, I=   0, J=   0

 MAXIMUM STEPSIZE WHICH MEETS STABILITY CRITERION OF THE DISPERSION TERM
 = 0.5606E-02(WHEN MIN. R.F.=1)  AT K=   3, I=   2, J=  32
     1 CALLS TO GCG PACKAGE FOR TRANSPORT TIME STEP  10 IN FLOW TIME STEP  56 STRESS PERIOD   2
    12 TOTAL ITERATIONS



 >>>>>>>>>>>>>>>>>>>>>>>>>>>>>>>>>>>>>>>>>>>>>>>>>>>>>>>FOR COMPONENT NO. 01<<<<<<<<<<<<<<<<<<<<<<<<<<<<<<<<<<<<<<<<<<<<<<<<<<<<<<<


                                            -------------------------------------------
                                                      TRANSPORT STEP NO.   10
                                            -------------------------------------------

 TOTAL ELAPSED TIME SINCE BEGINNING OF SIMULATION =   56.89074    D   
 .....................................................................

                     CUMULATIVE MASS BUDGETS AT END OF TRANSPORT STEP   10, TIME STEP   56, STRESS PERIOD    2
                     ------------------------------------------------------------------------------------------

                                                             IN                           OUT
                                                      ----------------             ----------------
                               CONSTANT CONCENTRATION:    9422.887                   -4900.533    
                                        CONSTANT HEAD:    0.000000                    0.000000    
                               MASS STOR (FLOW MODEL):   0.1269669E-01              -0.3338326E-02
                                MASS STORAGE (SOLUTE):    2.902468                   -4525.269    
                            ---------------------------------------------------------------------------
                                              [TOTAL]:    9425.802     KG            -9425.805     KG  

                                                          NET (IN - OUT):  -0.2887197E-02
                                                   DISCREPANCY (PERCENT):  -0.3063078E-04
 
 SOLVING FOR HEAD 
 FLOW MODEL IS TRANSIENT
 FLOW MODEL CONTAINS CONSTANT-HEAD CELLS


 MAXIMUM STEPSIZE DURING WHICH ANY PARTICLE CANNOT MOVE MORE THAN ONE CELL
 = 0.1188    (WHEN MIN. R.F.=1)  AT K=   3, I=   2, J=  33

 MAXIMUM STEPSIZE WHICH MEETS STABILITY CRITERION OF THE ADVECTION TERM
 (FOR PURE FINITE-DIFFERENCE OPTION, MIXELM=0) 
 = 0.8139E-01(WHEN MIN. R.F.=1)  AT K=   3, I=   2, J=  32


 TOTAL NUMBER OF POINT SOURCES/SINKS PRESENT IN THE FLOW MODEL =   240

 MAXIMUM STEPSIZE WHICH MEETS STABILITY CRITERION OF THE SINK & SOURCE TERM
 = 0.1000E+31(WHEN MIN. R.F.=1)  AT K=   0, I=   0, J=   0

 MAXIMUM STEPSIZE WHICH MEETS STABILITY CRITERION OF THE DISPERSION TERM
 = 0.5606E-02(WHEN MIN. R.F.=1)  AT K=   3, I=   2, J=  32
     1 CALLS TO GCG PACKAGE FOR TRANSPORT TIME STEP  11 IN FLOW TIME STEP  56 STRESS PERIOD   2
    12 TOTAL ITERATIONS
 
 SOLVING FOR HEAD 
 FLOW MODEL IS TRANSIENT
 FLOW MODEL CONTAINS CONSTANT-HEAD CELLS


 MAXIMUM STEPSIZE DURING WHICH ANY PARTICLE CANNOT MOVE MORE THAN ONE CELL
 = 0.1188    (WHEN MIN. R.F.=1)  AT K=   3, I=   2, J=  33

 MAXIMUM STEPSIZE WHICH MEETS STABILITY CRITERION OF THE ADVECTION TERM
 (FOR PURE FINITE-DIFFERENCE OPTION, MIXELM=0) 
 = 0.8139E-01(WHEN MIN. R.F.=1)  AT K=   3, I=   2, J=  32


 TOTAL NUMBER OF POINT SOURCES/SINKS PRESENT IN THE FLOW MODEL =   240

 MAXIMUM STEPSIZE WHICH MEETS STABILITY CRITERION OF THE SINK & SOURCE TERM
 = 0.1000E+31(WHEN MIN. R.F.=1)  AT K=   0, I=   0, J=   0

 MAXIMUM STEPSIZE WHICH MEETS STABILITY CRITERION OF THE DISPERSION TERM
 = 0.5606E-02(WHEN MIN. R.F.=1)  AT K=   3, I=   2, J=  32
     1 CALLS TO GCG PACKAGE FOR TRANSPORT TIME STEP  12 IN FLOW TIME STEP  56 STRESS PERIOD   2
     6 TOTAL ITERATIONS
  MAXIMUM CONCENTRATION CHANGES FOR EACH ITERATION:
  MAX. CHANGE LAYER,ROW,COL MAX. CHANGE LAYER,ROW,COL MAX. CHANGE LAYER,ROW,COL MAX. CHANGE LAYER,ROW,COL MAX. CHANGE LAYER,ROW,COL
 ------------------------------------------------------------------------------------------------------------------------------------
   0.1536E-03 ( 14,  2, 57)  0.1227E-04 (  6,  2, 60)  0.1798E-05 (  5,  2, 57)  0.4713E-06 (  3,  2, 33)  0.2193E-06 (  4,  2, 33)
   0.8611E-07 (  3,  2, 33)


                                          ================================================
                                                         FROM TIME =   57.000     TO    58.000    

 
 SOLVING FOR HEAD 
 FLOW MODEL IS TRANSIENT
 FLOW MODEL CONTAINS CONSTANT-HEAD CELLS


 MAXIMUM STEPSIZE DURING WHICH ANY PARTICLE CANNOT MOVE MORE THAN ONE CELL
 = 0.1188    (WHEN MIN. R.F.=1)  AT K=   3, I=   2, J=  33

 MAXIMUM STEPSIZE WHICH MEETS STABILITY CRITERION OF THE ADVECTION TERM
 (FOR PURE FINITE-DIFFERENCE OPTION, MIXELM=0) 
 = 0.8139E-01(WHEN MIN. R.F.=1)  AT K=   3, I=   2, J=  32


 TOTAL NUMBER OF POINT SOURCES/SINKS PRESENT IN THE FLOW MODEL =   240

 MAXIMUM STEPSIZE WHICH MEETS STABILITY CRITERION OF THE SINK & SOURCE TERM
 = 0.1000E+31(WHEN MIN. R.F.=1)  AT K=   0, I=   0, J=   0

 MAXIMUM STEPSIZE WHICH MEETS STABILITY CRITERION OF THE DISPERSION TERM
 = 0.5606E-02(WHEN MIN. R.F.=1)  AT K=   3, I=   2, J=  32


     1 CALLS TO GCG PACKAGE FOR TRANSPORT TIME STEP   1 IN FLOW TIME STEP  57 STRESS PERIOD   2
    12 TOTAL ITERATIONS

 NO OUTPUT CONTROL FOR STRESS PERIOD    2   TIME STEP  57
 
 SOLVING FOR HEAD 
 FLOW MODEL IS TRANSIENT
 FLOW MODEL CONTAINS CONSTANT-HEAD CELLS


 MAXIMUM STEPSIZE DURING WHICH ANY PARTICLE CANNOT MOVE MORE THAN ONE CELL
 = 0.1188    (WHEN MIN. R.F.=1)  AT K=   3, I=   2, J=  33

 MAXIMUM STEPSIZE WHICH MEETS STABILITY CRITERION OF THE ADVECTION TERM
 (FOR PURE FINITE-DIFFERENCE OPTION, MIXELM=0) 
 = 0.8139E-01(WHEN MIN. R.F.=1)  AT K=   3, I=   2, J=  32


 TOTAL NUMBER OF POINT SOURCES/SINKS PRESENT IN THE FLOW MODEL =   240

 MAXIMUM STEPSIZE WHICH MEETS STABILITY CRITERION OF THE SINK & SOURCE TERM
 = 0.1000E+31(WHEN MIN. R.F.=1)  AT K=   0, I=   0, J=   0

 MAXIMUM STEPSIZE WHICH MEETS STABILITY CRITERION OF THE DISPERSION TERM
 = 0.5606E-02(WHEN MIN. R.F.=1)  AT K=   3, I=   2, J=  32
     1 CALLS TO GCG PACKAGE FOR TRANSPORT TIME STEP   2 IN FLOW TIME STEP  57 STRESS PERIOD   2
    12 TOTAL ITERATIONS
 
 SOLVING FOR HEAD 
 FLOW MODEL IS TRANSIENT
 FLOW MODEL CONTAINS CONSTANT-HEAD CELLS


 MAXIMUM STEPSIZE DURING WHICH ANY PARTICLE CANNOT MOVE MORE THAN ONE CELL
 = 0.1188    (WHEN MIN. R.F.=1)  AT K=   3, I=   2, J=  33

 MAXIMUM STEPSIZE WHICH MEETS STABILITY CRITERION OF THE ADVECTION TERM
 (FOR PURE FINITE-DIFFERENCE OPTION, MIXELM=0) 
 = 0.8139E-01(WHEN MIN. R.F.=1)  AT K=   3, I=   2, J=  32


 TOTAL NUMBER OF POINT SOURCES/SINKS PRESENT IN THE FLOW MODEL =   240

 MAXIMUM STEPSIZE WHICH MEETS STABILITY CRITERION OF THE SINK & SOURCE TERM
 = 0.1000E+31(WHEN MIN. R.F.=1)  AT K=   0, I=   0, J=   0

 MAXIMUM STEPSIZE WHICH MEETS STABILITY CRITERION OF THE DISPERSION TERM
 = 0.5606E-02(WHEN MIN. R.F.=1)  AT K=   3, I=   2, J=  32
     1 CALLS TO GCG PACKAGE FOR TRANSPORT TIME STEP   3 IN FLOW TIME STEP  57 STRESS PERIOD   2
    12 TOTAL ITERATIONS
 
 SOLVING FOR HEAD 
 FLOW MODEL IS TRANSIENT
 FLOW MODEL CONTAINS CONSTANT-HEAD CELLS


 MAXIMUM STEPSIZE DURING WHICH ANY PARTICLE CANNOT MOVE MORE THAN ONE CELL
 = 0.1188    (WHEN MIN. R.F.=1)  AT K=   3, I=   2, J=  33

 MAXIMUM STEPSIZE WHICH MEETS STABILITY CRITERION OF THE ADVECTION TERM
 (FOR PURE FINITE-DIFFERENCE OPTION, MIXELM=0) 
 = 0.8139E-01(WHEN MIN. R.F.=1)  AT K=   3, I=   2, J=  32


 TOTAL NUMBER OF POINT SOURCES/SINKS PRESENT IN THE FLOW MODEL =   240

 MAXIMUM STEPSIZE WHICH MEETS STABILITY CRITERION OF THE SINK & SOURCE TERM
 = 0.1000E+31(WHEN MIN. R.F.=1)  AT K=   0, I=   0, J=   0

 MAXIMUM STEPSIZE WHICH MEETS STABILITY CRITERION OF THE DISPERSION TERM
 = 0.5606E-02(WHEN MIN. R.F.=1)  AT K=   3, I=   2, J=  32
     1 CALLS TO GCG PACKAGE FOR TRANSPORT TIME STEP   4 IN FLOW TIME STEP  57 STRESS PERIOD   2
    12 TOTAL ITERATIONS
 
 SOLVING FOR HEAD 
 FLOW MODEL IS TRANSIENT
 FLOW MODEL CONTAINS CONSTANT-HEAD CELLS


 MAXIMUM STEPSIZE DURING WHICH ANY PARTICLE CANNOT MOVE MORE THAN ONE CELL
 = 0.1188    (WHEN MIN. R.F.=1)  AT K=   3, I=   2, J=  33

 MAXIMUM STEPSIZE WHICH MEETS STABILITY CRITERION OF THE ADVECTION TERM
 (FOR PURE FINITE-DIFFERENCE OPTION, MIXELM=0) 
 = 0.8139E-01(WHEN MIN. R.F.=1)  AT K=   3, I=   2, J=  32


 TOTAL NUMBER OF POINT SOURCES/SINKS PRESENT IN THE FLOW MODEL =   240

 MAXIMUM STEPSIZE WHICH MEETS STABILITY CRITERION OF THE SINK & SOURCE TERM
 = 0.1000E+31(WHEN MIN. R.F.=1)  AT K=   0, I=   0, J=   0

 MAXIMUM STEPSIZE WHICH MEETS STABILITY CRITERION OF THE DISPERSION TERM
 = 0.5606E-02(WHEN MIN. R.F.=1)  AT K=   3, I=   2, J=  32
     1 CALLS TO GCG PACKAGE FOR TRANSPORT TIME STEP   5 IN FLOW TIME STEP  57 STRESS PERIOD   2
    12 TOTAL ITERATIONS
 
 SOLVING FOR HEAD 
 FLOW MODEL IS TRANSIENT
 FLOW MODEL CONTAINS CONSTANT-HEAD CELLS


 MAXIMUM STEPSIZE DURING WHICH ANY PARTICLE CANNOT MOVE MORE THAN ONE CELL
 = 0.1188    (WHEN MIN. R.F.=1)  AT K=   3, I=   2, J=  33

 MAXIMUM STEPSIZE WHICH MEETS STABILITY CRITERION OF THE ADVECTION TERM
 (FOR PURE FINITE-DIFFERENCE OPTION, MIXELM=0) 
 = 0.8139E-01(WHEN MIN. R.F.=1)  AT K=   3, I=   2, J=  32


 TOTAL NUMBER OF POINT SOURCES/SINKS PRESENT IN THE FLOW MODEL =   240

 MAXIMUM STEPSIZE WHICH MEETS STABILITY CRITERION OF THE SINK & SOURCE TERM
 = 0.1000E+31(WHEN MIN. R.F.=1)  AT K=   0, I=   0, J=   0

 MAXIMUM STEPSIZE WHICH MEETS STABILITY CRITERION OF THE DISPERSION TERM
 = 0.5606E-02(WHEN MIN. R.F.=1)  AT K=   3, I=   2, J=  32
     1 CALLS TO GCG PACKAGE FOR TRANSPORT TIME STEP   6 IN FLOW TIME STEP  57 STRESS PERIOD   2
    12 TOTAL ITERATIONS
 
 SOLVING FOR HEAD 
 FLOW MODEL IS TRANSIENT
 FLOW MODEL CONTAINS CONSTANT-HEAD CELLS


 MAXIMUM STEPSIZE DURING WHICH ANY PARTICLE CANNOT MOVE MORE THAN ONE CELL
 = 0.1188    (WHEN MIN. R.F.=1)  AT K=   3, I=   2, J=  33

 MAXIMUM STEPSIZE WHICH MEETS STABILITY CRITERION OF THE ADVECTION TERM
 (FOR PURE FINITE-DIFFERENCE OPTION, MIXELM=0) 
 = 0.8139E-01(WHEN MIN. R.F.=1)  AT K=   3, I=   2, J=  32


 TOTAL NUMBER OF POINT SOURCES/SINKS PRESENT IN THE FLOW MODEL =   240

 MAXIMUM STEPSIZE WHICH MEETS STABILITY CRITERION OF THE SINK & SOURCE TERM
 = 0.1000E+31(WHEN MIN. R.F.=1)  AT K=   0, I=   0, J=   0

 MAXIMUM STEPSIZE WHICH MEETS STABILITY CRITERION OF THE DISPERSION TERM
 = 0.5606E-02(WHEN MIN. R.F.=1)  AT K=   3, I=   2, J=  32
     1 CALLS TO GCG PACKAGE FOR TRANSPORT TIME STEP   7 IN FLOW TIME STEP  57 STRESS PERIOD   2
    12 TOTAL ITERATIONS
 
 SOLVING FOR HEAD 
 FLOW MODEL IS TRANSIENT
 FLOW MODEL CONTAINS CONSTANT-HEAD CELLS


 MAXIMUM STEPSIZE DURING WHICH ANY PARTICLE CANNOT MOVE MORE THAN ONE CELL
 = 0.1188    (WHEN MIN. R.F.=1)  AT K=   3, I=   2, J=  33

 MAXIMUM STEPSIZE WHICH MEETS STABILITY CRITERION OF THE ADVECTION TERM
 (FOR PURE FINITE-DIFFERENCE OPTION, MIXELM=0) 
 = 0.8139E-01(WHEN MIN. R.F.=1)  AT K=   3, I=   2, J=  32


 TOTAL NUMBER OF POINT SOURCES/SINKS PRESENT IN THE FLOW MODEL =   240

 MAXIMUM STEPSIZE WHICH MEETS STABILITY CRITERION OF THE SINK & SOURCE TERM
 = 0.1000E+31(WHEN MIN. R.F.=1)  AT K=   0, I=   0, J=   0

 MAXIMUM STEPSIZE WHICH MEETS STABILITY CRITERION OF THE DISPERSION TERM
 = 0.5606E-02(WHEN MIN. R.F.=1)  AT K=   3, I=   2, J=  32
     1 CALLS TO GCG PACKAGE FOR TRANSPORT TIME STEP   8 IN FLOW TIME STEP  57 STRESS PERIOD   2
    12 TOTAL ITERATIONS
 
 SOLVING FOR HEAD 
 FLOW MODEL IS TRANSIENT
 FLOW MODEL CONTAINS CONSTANT-HEAD CELLS


 MAXIMUM STEPSIZE DURING WHICH ANY PARTICLE CANNOT MOVE MORE THAN ONE CELL
 = 0.1188    (WHEN MIN. R.F.=1)  AT K=   3, I=   2, J=  33

 MAXIMUM STEPSIZE WHICH MEETS STABILITY CRITERION OF THE ADVECTION TERM
 (FOR PURE FINITE-DIFFERENCE OPTION, MIXELM=0) 
 = 0.8139E-01(WHEN MIN. R.F.=1)  AT K=   3, I=   2, J=  32


 TOTAL NUMBER OF POINT SOURCES/SINKS PRESENT IN THE FLOW MODEL =   240

 MAXIMUM STEPSIZE WHICH MEETS STABILITY CRITERION OF THE SINK & SOURCE TERM
 = 0.1000E+31(WHEN MIN. R.F.=1)  AT K=   0, I=   0, J=   0

 MAXIMUM STEPSIZE WHICH MEETS STABILITY CRITERION OF THE DISPERSION TERM
 = 0.5606E-02(WHEN MIN. R.F.=1)  AT K=   3, I=   2, J=  32
     1 CALLS TO GCG PACKAGE FOR TRANSPORT TIME STEP   9 IN FLOW TIME STEP  57 STRESS PERIOD   2
    12 TOTAL ITERATIONS
 
 SOLVING FOR HEAD 
 FLOW MODEL IS TRANSIENT
 FLOW MODEL CONTAINS CONSTANT-HEAD CELLS


 MAXIMUM STEPSIZE DURING WHICH ANY PARTICLE CANNOT MOVE MORE THAN ONE CELL
 = 0.1188    (WHEN MIN. R.F.=1)  AT K=   3, I=   2, J=  33

 MAXIMUM STEPSIZE WHICH MEETS STABILITY CRITERION OF THE ADVECTION TERM
 (FOR PURE FINITE-DIFFERENCE OPTION, MIXELM=0) 
 = 0.8139E-01(WHEN MIN. R.F.=1)  AT K=   3, I=   2, J=  32


 TOTAL NUMBER OF POINT SOURCES/SINKS PRESENT IN THE FLOW MODEL =   240

 MAXIMUM STEPSIZE WHICH MEETS STABILITY CRITERION OF THE SINK & SOURCE TERM
 = 0.1000E+31(WHEN MIN. R.F.=1)  AT K=   0, I=   0, J=   0

 MAXIMUM STEPSIZE WHICH MEETS STABILITY CRITERION OF THE DISPERSION TERM
 = 0.5606E-02(WHEN MIN. R.F.=1)  AT K=   3, I=   2, J=  32
     1 CALLS TO GCG PACKAGE FOR TRANSPORT TIME STEP  10 IN FLOW TIME STEP  57 STRESS PERIOD   2
    12 TOTAL ITERATIONS



 >>>>>>>>>>>>>>>>>>>>>>>>>>>>>>>>>>>>>>>>>>>>>>>>>>>>>>>FOR COMPONENT NO. 01<<<<<<<<<<<<<<<<<<<<<<<<<<<<<<<<<<<<<<<<<<<<<<<<<<<<<<<


                                            -------------------------------------------
                                                      TRANSPORT STEP NO.   10
                                            -------------------------------------------

 TOTAL ELAPSED TIME SINCE BEGINNING OF SIMULATION =   57.89071    D   
 .....................................................................

                     CUMULATIVE MASS BUDGETS AT END OF TRANSPORT STEP   10, TIME STEP   57, STRESS PERIOD    2
                     ------------------------------------------------------------------------------------------

                                                             IN                           OUT
                                                      ----------------             ----------------
                               CONSTANT CONCENTRATION:    9533.349                   -4993.038    
                                        CONSTANT HEAD:    0.000000                    0.000000    
                               MASS STOR (FLOW MODEL):   0.1271421E-01              -0.3343095E-02
                                MASS STORAGE (SOLUTE):    3.214191                   -4543.538    
                            ---------------------------------------------------------------------------
                                              [TOTAL]:    9536.576     KG            -9536.579     KG  

                                                          NET (IN - OUT):  -0.2902685E-02
                                                   DISCREPANCY (PERCENT):  -0.3043738E-04
 
 SOLVING FOR HEAD 
 FLOW MODEL IS TRANSIENT
 FLOW MODEL CONTAINS CONSTANT-HEAD CELLS


 MAXIMUM STEPSIZE DURING WHICH ANY PARTICLE CANNOT MOVE MORE THAN ONE CELL
 = 0.1188    (WHEN MIN. R.F.=1)  AT K=   3, I=   2, J=  33

 MAXIMUM STEPSIZE WHICH MEETS STABILITY CRITERION OF THE ADVECTION TERM
 (FOR PURE FINITE-DIFFERENCE OPTION, MIXELM=0) 
 = 0.8139E-01(WHEN MIN. R.F.=1)  AT K=   3, I=   2, J=  32


 TOTAL NUMBER OF POINT SOURCES/SINKS PRESENT IN THE FLOW MODEL =   240

 MAXIMUM STEPSIZE WHICH MEETS STABILITY CRITERION OF THE SINK & SOURCE TERM
 = 0.1000E+31(WHEN MIN. R.F.=1)  AT K=   0, I=   0, J=   0

 MAXIMUM STEPSIZE WHICH MEETS STABILITY CRITERION OF THE DISPERSION TERM
 = 0.5606E-02(WHEN MIN. R.F.=1)  AT K=   3, I=   2, J=  32
     1 CALLS TO GCG PACKAGE FOR TRANSPORT TIME STEP  11 IN FLOW TIME STEP  57 STRESS PERIOD   2
    12 TOTAL ITERATIONS
 
 SOLVING FOR HEAD 
 FLOW MODEL IS TRANSIENT
 FLOW MODEL CONTAINS CONSTANT-HEAD CELLS


 MAXIMUM STEPSIZE DURING WHICH ANY PARTICLE CANNOT MOVE MORE THAN ONE CELL
 = 0.1188    (WHEN MIN. R.F.=1)  AT K=   3, I=   2, J=  33

 MAXIMUM STEPSIZE WHICH MEETS STABILITY CRITERION OF THE ADVECTION TERM
 (FOR PURE FINITE-DIFFERENCE OPTION, MIXELM=0) 
 = 0.8139E-01(WHEN MIN. R.F.=1)  AT K=   3, I=   2, J=  32


 TOTAL NUMBER OF POINT SOURCES/SINKS PRESENT IN THE FLOW MODEL =   240

 MAXIMUM STEPSIZE WHICH MEETS STABILITY CRITERION OF THE SINK & SOURCE TERM
 = 0.1000E+31(WHEN MIN. R.F.=1)  AT K=   0, I=   0, J=   0

 MAXIMUM STEPSIZE WHICH MEETS STABILITY CRITERION OF THE DISPERSION TERM
 = 0.5606E-02(WHEN MIN. R.F.=1)  AT K=   3, I=   2, J=  32
     1 CALLS TO GCG PACKAGE FOR TRANSPORT TIME STEP  12 IN FLOW TIME STEP  57 STRESS PERIOD   2
     6 TOTAL ITERATIONS
  MAXIMUM CONCENTRATION CHANGES FOR EACH ITERATION:
  MAX. CHANGE LAYER,ROW,COL MAX. CHANGE LAYER,ROW,COL MAX. CHANGE LAYER,ROW,COL MAX. CHANGE LAYER,ROW,COL MAX. CHANGE LAYER,ROW,COL
 ------------------------------------------------------------------------------------------------------------------------------------
   0.1519E-03 ( 14,  2, 57)  0.1185E-04 (  6,  2, 60)  0.1737E-05 (  5,  2, 57)  0.4449E-06 (  7,  2, 60)  0.2053E-06 (  4,  2, 33)
   0.7900E-07 (  3,  2, 32)


                                          ================================================
                                                         FROM TIME =   58.000     TO    59.000    

 
 SOLVING FOR HEAD 
 FLOW MODEL IS TRANSIENT
 FLOW MODEL CONTAINS CONSTANT-HEAD CELLS


 MAXIMUM STEPSIZE DURING WHICH ANY PARTICLE CANNOT MOVE MORE THAN ONE CELL
 = 0.1188    (WHEN MIN. R.F.=1)  AT K=   3, I=   2, J=  33

 MAXIMUM STEPSIZE WHICH MEETS STABILITY CRITERION OF THE ADVECTION TERM
 (FOR PURE FINITE-DIFFERENCE OPTION, MIXELM=0) 
 = 0.8139E-01(WHEN MIN. R.F.=1)  AT K=   3, I=   2, J=  32


 TOTAL NUMBER OF POINT SOURCES/SINKS PRESENT IN THE FLOW MODEL =   240

 MAXIMUM STEPSIZE WHICH MEETS STABILITY CRITERION OF THE SINK & SOURCE TERM
 = 0.1000E+31(WHEN MIN. R.F.=1)  AT K=   0, I=   0, J=   0

 MAXIMUM STEPSIZE WHICH MEETS STABILITY CRITERION OF THE DISPERSION TERM
 = 0.5606E-02(WHEN MIN. R.F.=1)  AT K=   3, I=   2, J=  32


     1 CALLS TO GCG PACKAGE FOR TRANSPORT TIME STEP   1 IN FLOW TIME STEP  58 STRESS PERIOD   2
    12 TOTAL ITERATIONS

 NO OUTPUT CONTROL FOR STRESS PERIOD    2   TIME STEP  58
 
 SOLVING FOR HEAD 
 FLOW MODEL IS TRANSIENT
 FLOW MODEL CONTAINS CONSTANT-HEAD CELLS


 MAXIMUM STEPSIZE DURING WHICH ANY PARTICLE CANNOT MOVE MORE THAN ONE CELL
 = 0.1188    (WHEN MIN. R.F.=1)  AT K=   3, I=   2, J=  33

 MAXIMUM STEPSIZE WHICH MEETS STABILITY CRITERION OF THE ADVECTION TERM
 (FOR PURE FINITE-DIFFERENCE OPTION, MIXELM=0) 
 = 0.8139E-01(WHEN MIN. R.F.=1)  AT K=   3, I=   2, J=  32


 TOTAL NUMBER OF POINT SOURCES/SINKS PRESENT IN THE FLOW MODEL =   240

 MAXIMUM STEPSIZE WHICH MEETS STABILITY CRITERION OF THE SINK & SOURCE TERM
 = 0.1000E+31(WHEN MIN. R.F.=1)  AT K=   0, I=   0, J=   0

 MAXIMUM STEPSIZE WHICH MEETS STABILITY CRITERION OF THE DISPERSION TERM
 = 0.5606E-02(WHEN MIN. R.F.=1)  AT K=   3, I=   2, J=  32
     1 CALLS TO GCG PACKAGE FOR TRANSPORT TIME STEP   2 IN FLOW TIME STEP  58 STRESS PERIOD   2
    12 TOTAL ITERATIONS
 
 SOLVING FOR HEAD 
 FLOW MODEL IS TRANSIENT
 FLOW MODEL CONTAINS CONSTANT-HEAD CELLS


 MAXIMUM STEPSIZE DURING WHICH ANY PARTICLE CANNOT MOVE MORE THAN ONE CELL
 = 0.1188    (WHEN MIN. R.F.=1)  AT K=   3, I=   2, J=  33

 MAXIMUM STEPSIZE WHICH MEETS STABILITY CRITERION OF THE ADVECTION TERM
 (FOR PURE FINITE-DIFFERENCE OPTION, MIXELM=0) 
 = 0.8139E-01(WHEN MIN. R.F.=1)  AT K=   3, I=   2, J=  32


 TOTAL NUMBER OF POINT SOURCES/SINKS PRESENT IN THE FLOW MODEL =   240

 MAXIMUM STEPSIZE WHICH MEETS STABILITY CRITERION OF THE SINK & SOURCE TERM
 = 0.1000E+31(WHEN MIN. R.F.=1)  AT K=   0, I=   0, J=   0

 MAXIMUM STEPSIZE WHICH MEETS STABILITY CRITERION OF THE DISPERSION TERM
 = 0.5606E-02(WHEN MIN. R.F.=1)  AT K=   3, I=   2, J=  32
     1 CALLS TO GCG PACKAGE FOR TRANSPORT TIME STEP   3 IN FLOW TIME STEP  58 STRESS PERIOD   2
    12 TOTAL ITERATIONS
 
 SOLVING FOR HEAD 
 FLOW MODEL IS TRANSIENT
 FLOW MODEL CONTAINS CONSTANT-HEAD CELLS


 MAXIMUM STEPSIZE DURING WHICH ANY PARTICLE CANNOT MOVE MORE THAN ONE CELL
 = 0.1188    (WHEN MIN. R.F.=1)  AT K=   3, I=   2, J=  33

 MAXIMUM STEPSIZE WHICH MEETS STABILITY CRITERION OF THE ADVECTION TERM
 (FOR PURE FINITE-DIFFERENCE OPTION, MIXELM=0) 
 = 0.8139E-01(WHEN MIN. R.F.=1)  AT K=   3, I=   2, J=  32


 TOTAL NUMBER OF POINT SOURCES/SINKS PRESENT IN THE FLOW MODEL =   240

 MAXIMUM STEPSIZE WHICH MEETS STABILITY CRITERION OF THE SINK & SOURCE TERM
 = 0.1000E+31(WHEN MIN. R.F.=1)  AT K=   0, I=   0, J=   0

 MAXIMUM STEPSIZE WHICH MEETS STABILITY CRITERION OF THE DISPERSION TERM
 = 0.5606E-02(WHEN MIN. R.F.=1)  AT K=   3, I=   2, J=  32
     1 CALLS TO GCG PACKAGE FOR TRANSPORT TIME STEP   4 IN FLOW TIME STEP  58 STRESS PERIOD   2
    12 TOTAL ITERATIONS
 
 SOLVING FOR HEAD 
 FLOW MODEL IS TRANSIENT
 FLOW MODEL CONTAINS CONSTANT-HEAD CELLS


 MAXIMUM STEPSIZE DURING WHICH ANY PARTICLE CANNOT MOVE MORE THAN ONE CELL
 = 0.1188    (WHEN MIN. R.F.=1)  AT K=   3, I=   2, J=  33

 MAXIMUM STEPSIZE WHICH MEETS STABILITY CRITERION OF THE ADVECTION TERM
 (FOR PURE FINITE-DIFFERENCE OPTION, MIXELM=0) 
 = 0.8139E-01(WHEN MIN. R.F.=1)  AT K=   3, I=   2, J=  32


 TOTAL NUMBER OF POINT SOURCES/SINKS PRESENT IN THE FLOW MODEL =   240

 MAXIMUM STEPSIZE WHICH MEETS STABILITY CRITERION OF THE SINK & SOURCE TERM
 = 0.1000E+31(WHEN MIN. R.F.=1)  AT K=   0, I=   0, J=   0

 MAXIMUM STEPSIZE WHICH MEETS STABILITY CRITERION OF THE DISPERSION TERM
 = 0.5606E-02(WHEN MIN. R.F.=1)  AT K=   3, I=   2, J=  32
     1 CALLS TO GCG PACKAGE FOR TRANSPORT TIME STEP   5 IN FLOW TIME STEP  58 STRESS PERIOD   2
    12 TOTAL ITERATIONS
 
 SOLVING FOR HEAD 
 FLOW MODEL IS TRANSIENT
 FLOW MODEL CONTAINS CONSTANT-HEAD CELLS


 MAXIMUM STEPSIZE DURING WHICH ANY PARTICLE CANNOT MOVE MORE THAN ONE CELL
 = 0.1188    (WHEN MIN. R.F.=1)  AT K=   3, I=   2, J=  33

 MAXIMUM STEPSIZE WHICH MEETS STABILITY CRITERION OF THE ADVECTION TERM
 (FOR PURE FINITE-DIFFERENCE OPTION, MIXELM=0) 
 = 0.8139E-01(WHEN MIN. R.F.=1)  AT K=   3, I=   2, J=  32


 TOTAL NUMBER OF POINT SOURCES/SINKS PRESENT IN THE FLOW MODEL =   240

 MAXIMUM STEPSIZE WHICH MEETS STABILITY CRITERION OF THE SINK & SOURCE TERM
 = 0.1000E+31(WHEN MIN. R.F.=1)  AT K=   0, I=   0, J=   0

 MAXIMUM STEPSIZE WHICH MEETS STABILITY CRITERION OF THE DISPERSION TERM
 = 0.5606E-02(WHEN MIN. R.F.=1)  AT K=   3, I=   2, J=  32
     1 CALLS TO GCG PACKAGE FOR TRANSPORT TIME STEP   6 IN FLOW TIME STEP  58 STRESS PERIOD   2
    12 TOTAL ITERATIONS
 
 SOLVING FOR HEAD 
 FLOW MODEL IS TRANSIENT
 FLOW MODEL CONTAINS CONSTANT-HEAD CELLS


 MAXIMUM STEPSIZE DURING WHICH ANY PARTICLE CANNOT MOVE MORE THAN ONE CELL
 = 0.1188    (WHEN MIN. R.F.=1)  AT K=   3, I=   2, J=  33

 MAXIMUM STEPSIZE WHICH MEETS STABILITY CRITERION OF THE ADVECTION TERM
 (FOR PURE FINITE-DIFFERENCE OPTION, MIXELM=0) 
 = 0.8139E-01(WHEN MIN. R.F.=1)  AT K=   3, I=   2, J=  32


 TOTAL NUMBER OF POINT SOURCES/SINKS PRESENT IN THE FLOW MODEL =   240

 MAXIMUM STEPSIZE WHICH MEETS STABILITY CRITERION OF THE SINK & SOURCE TERM
 = 0.1000E+31(WHEN MIN. R.F.=1)  AT K=   0, I=   0, J=   0

 MAXIMUM STEPSIZE WHICH MEETS STABILITY CRITERION OF THE DISPERSION TERM
 = 0.5606E-02(WHEN MIN. R.F.=1)  AT K=   3, I=   2, J=  32
     1 CALLS TO GCG PACKAGE FOR TRANSPORT TIME STEP   7 IN FLOW TIME STEP  58 STRESS PERIOD   2
    12 TOTAL ITERATIONS
 
 SOLVING FOR HEAD 
 FLOW MODEL IS TRANSIENT
 FLOW MODEL CONTAINS CONSTANT-HEAD CELLS


 MAXIMUM STEPSIZE DURING WHICH ANY PARTICLE CANNOT MOVE MORE THAN ONE CELL
 = 0.1188    (WHEN MIN. R.F.=1)  AT K=   3, I=   2, J=  33

 MAXIMUM STEPSIZE WHICH MEETS STABILITY CRITERION OF THE ADVECTION TERM
 (FOR PURE FINITE-DIFFERENCE OPTION, MIXELM=0) 
 = 0.8139E-01(WHEN MIN. R.F.=1)  AT K=   3, I=   2, J=  32


 TOTAL NUMBER OF POINT SOURCES/SINKS PRESENT IN THE FLOW MODEL =   240

 MAXIMUM STEPSIZE WHICH MEETS STABILITY CRITERION OF THE SINK & SOURCE TERM
 = 0.1000E+31(WHEN MIN. R.F.=1)  AT K=   0, I=   0, J=   0

 MAXIMUM STEPSIZE WHICH MEETS STABILITY CRITERION OF THE DISPERSION TERM
 = 0.5606E-02(WHEN MIN. R.F.=1)  AT K=   3, I=   2, J=  32
     1 CALLS TO GCG PACKAGE FOR TRANSPORT TIME STEP   8 IN FLOW TIME STEP  58 STRESS PERIOD   2
    12 TOTAL ITERATIONS
 
 SOLVING FOR HEAD 
 FLOW MODEL IS TRANSIENT
 FLOW MODEL CONTAINS CONSTANT-HEAD CELLS


 MAXIMUM STEPSIZE DURING WHICH ANY PARTICLE CANNOT MOVE MORE THAN ONE CELL
 = 0.1188    (WHEN MIN. R.F.=1)  AT K=   3, I=   2, J=  33

 MAXIMUM STEPSIZE WHICH MEETS STABILITY CRITERION OF THE ADVECTION TERM
 (FOR PURE FINITE-DIFFERENCE OPTION, MIXELM=0) 
 = 0.8139E-01(WHEN MIN. R.F.=1)  AT K=   3, I=   2, J=  32


 TOTAL NUMBER OF POINT SOURCES/SINKS PRESENT IN THE FLOW MODEL =   240

 MAXIMUM STEPSIZE WHICH MEETS STABILITY CRITERION OF THE SINK & SOURCE TERM
 = 0.1000E+31(WHEN MIN. R.F.=1)  AT K=   0, I=   0, J=   0

 MAXIMUM STEPSIZE WHICH MEETS STABILITY CRITERION OF THE DISPERSION TERM
 = 0.5606E-02(WHEN MIN. R.F.=1)  AT K=   3, I=   2, J=  32
     1 CALLS TO GCG PACKAGE FOR TRANSPORT TIME STEP   9 IN FLOW TIME STEP  58 STRESS PERIOD   2
    12 TOTAL ITERATIONS
 
 SOLVING FOR HEAD 
 FLOW MODEL IS TRANSIENT
 FLOW MODEL CONTAINS CONSTANT-HEAD CELLS


 MAXIMUM STEPSIZE DURING WHICH ANY PARTICLE CANNOT MOVE MORE THAN ONE CELL
 = 0.1188    (WHEN MIN. R.F.=1)  AT K=   3, I=   2, J=  33

 MAXIMUM STEPSIZE WHICH MEETS STABILITY CRITERION OF THE ADVECTION TERM
 (FOR PURE FINITE-DIFFERENCE OPTION, MIXELM=0) 
 = 0.8139E-01(WHEN MIN. R.F.=1)  AT K=   3, I=   2, J=  32


 TOTAL NUMBER OF POINT SOURCES/SINKS PRESENT IN THE FLOW MODEL =   240

 MAXIMUM STEPSIZE WHICH MEETS STABILITY CRITERION OF THE SINK & SOURCE TERM
 = 0.1000E+31(WHEN MIN. R.F.=1)  AT K=   0, I=   0, J=   0

 MAXIMUM STEPSIZE WHICH MEETS STABILITY CRITERION OF THE DISPERSION TERM
 = 0.5606E-02(WHEN MIN. R.F.=1)  AT K=   3, I=   2, J=  32
     1 CALLS TO GCG PACKAGE FOR TRANSPORT TIME STEP  10 IN FLOW TIME STEP  58 STRESS PERIOD   2
    12 TOTAL ITERATIONS



 >>>>>>>>>>>>>>>>>>>>>>>>>>>>>>>>>>>>>>>>>>>>>>>>>>>>>>>FOR COMPONENT NO. 01<<<<<<<<<<<<<<<<<<<<<<<<<<<<<<<<<<<<<<<<<<<<<<<<<<<<<<<


                                            -------------------------------------------
                                                      TRANSPORT STEP NO.   10
                                            -------------------------------------------

 TOTAL ELAPSED TIME SINCE BEGINNING OF SIMULATION =   58.89069    D   
 .....................................................................

                     CUMULATIVE MASS BUDGETS AT END OF TRANSPORT STEP   10, TIME STEP   58, STRESS PERIOD    2
                     ------------------------------------------------------------------------------------------

                                                             IN                           OUT
                                                      ----------------             ----------------
                               CONSTANT CONCENTRATION:    9643.472                   -5085.570    
                                        CONSTANT HEAD:    0.000000                    0.000000    
                               MASS STOR (FLOW MODEL):   0.1273159E-01              -0.3347746E-02
                                MASS STORAGE (SOLUTE):    3.544777                   -4561.458    
                            ---------------------------------------------------------------------------
                                              [TOTAL]:    9647.029     KG            -9647.032     KG  

                                                          NET (IN - OUT):  -0.2918005E-02
                                                   DISCREPANCY (PERCENT):  -0.3024770E-04
 
 SOLVING FOR HEAD 
 FLOW MODEL IS TRANSIENT
 FLOW MODEL CONTAINS CONSTANT-HEAD CELLS


 MAXIMUM STEPSIZE DURING WHICH ANY PARTICLE CANNOT MOVE MORE THAN ONE CELL
 = 0.1188    (WHEN MIN. R.F.=1)  AT K=   3, I=   2, J=  33

 MAXIMUM STEPSIZE WHICH MEETS STABILITY CRITERION OF THE ADVECTION TERM
 (FOR PURE FINITE-DIFFERENCE OPTION, MIXELM=0) 
 = 0.8139E-01(WHEN MIN. R.F.=1)  AT K=   3, I=   2, J=  32


 TOTAL NUMBER OF POINT SOURCES/SINKS PRESENT IN THE FLOW MODEL =   240

 MAXIMUM STEPSIZE WHICH MEETS STABILITY CRITERION OF THE SINK & SOURCE TERM
 = 0.1000E+31(WHEN MIN. R.F.=1)  AT K=   0, I=   0, J=   0

 MAXIMUM STEPSIZE WHICH MEETS STABILITY CRITERION OF THE DISPERSION TERM
 = 0.5606E-02(WHEN MIN. R.F.=1)  AT K=   3, I=   2, J=  32
     1 CALLS TO GCG PACKAGE FOR TRANSPORT TIME STEP  11 IN FLOW TIME STEP  58 STRESS PERIOD   2
    12 TOTAL ITERATIONS
 
 SOLVING FOR HEAD 
 FLOW MODEL IS TRANSIENT
 FLOW MODEL CONTAINS CONSTANT-HEAD CELLS


 MAXIMUM STEPSIZE DURING WHICH ANY PARTICLE CANNOT MOVE MORE THAN ONE CELL
 = 0.1188    (WHEN MIN. R.F.=1)  AT K=   3, I=   2, J=  33

 MAXIMUM STEPSIZE WHICH MEETS STABILITY CRITERION OF THE ADVECTION TERM
 (FOR PURE FINITE-DIFFERENCE OPTION, MIXELM=0) 
 = 0.8139E-01(WHEN MIN. R.F.=1)  AT K=   3, I=   2, J=  32


 TOTAL NUMBER OF POINT SOURCES/SINKS PRESENT IN THE FLOW MODEL =   240

 MAXIMUM STEPSIZE WHICH MEETS STABILITY CRITERION OF THE SINK & SOURCE TERM
 = 0.1000E+31(WHEN MIN. R.F.=1)  AT K=   0, I=   0, J=   0

 MAXIMUM STEPSIZE WHICH MEETS STABILITY CRITERION OF THE DISPERSION TERM
 = 0.5606E-02(WHEN MIN. R.F.=1)  AT K=   3, I=   2, J=  32
     1 CALLS TO GCG PACKAGE FOR TRANSPORT TIME STEP  12 IN FLOW TIME STEP  58 STRESS PERIOD   2
     6 TOTAL ITERATIONS
  MAXIMUM CONCENTRATION CHANGES FOR EACH ITERATION:
  MAX. CHANGE LAYER,ROW,COL MAX. CHANGE LAYER,ROW,COL MAX. CHANGE LAYER,ROW,COL MAX. CHANGE LAYER,ROW,COL MAX. CHANGE LAYER,ROW,COL
 ------------------------------------------------------------------------------------------------------------------------------------
   0.1501E-03 ( 14,  2, 57)  0.1144E-04 (  6,  2, 60)  0.1679E-05 (  5,  2, 57)  0.4277E-06 (  7,  2, 60)  0.1961E-06 (  4,  2, 33)
   0.7610E-07 (  3,  2, 32)


                                          ================================================
                                                         FROM TIME =   59.000     TO    60.000    

 
 SOLVING FOR HEAD 
 FLOW MODEL IS TRANSIENT
 FLOW MODEL CONTAINS CONSTANT-HEAD CELLS


 MAXIMUM STEPSIZE DURING WHICH ANY PARTICLE CANNOT MOVE MORE THAN ONE CELL
 = 0.1188    (WHEN MIN. R.F.=1)  AT K=   3, I=   2, J=  33

 MAXIMUM STEPSIZE WHICH MEETS STABILITY CRITERION OF THE ADVECTION TERM
 (FOR PURE FINITE-DIFFERENCE OPTION, MIXELM=0) 
 = 0.8139E-01(WHEN MIN. R.F.=1)  AT K=   3, I=   2, J=  32


 TOTAL NUMBER OF POINT SOURCES/SINKS PRESENT IN THE FLOW MODEL =   240

 MAXIMUM STEPSIZE WHICH MEETS STABILITY CRITERION OF THE SINK & SOURCE TERM
 = 0.1000E+31(WHEN MIN. R.F.=1)  AT K=   0, I=   0, J=   0

 MAXIMUM STEPSIZE WHICH MEETS STABILITY CRITERION OF THE DISPERSION TERM
 = 0.5606E-02(WHEN MIN. R.F.=1)  AT K=   3, I=   2, J=  32


     1 CALLS TO GCG PACKAGE FOR TRANSPORT TIME STEP   1 IN FLOW TIME STEP  59 STRESS PERIOD   2
    12 TOTAL ITERATIONS

 NO OUTPUT CONTROL FOR STRESS PERIOD    2   TIME STEP  59
 
 SOLVING FOR HEAD 
 FLOW MODEL IS TRANSIENT
 FLOW MODEL CONTAINS CONSTANT-HEAD CELLS


 MAXIMUM STEPSIZE DURING WHICH ANY PARTICLE CANNOT MOVE MORE THAN ONE CELL
 = 0.1188    (WHEN MIN. R.F.=1)  AT K=   3, I=   2, J=  33

 MAXIMUM STEPSIZE WHICH MEETS STABILITY CRITERION OF THE ADVECTION TERM
 (FOR PURE FINITE-DIFFERENCE OPTION, MIXELM=0) 
 = 0.8139E-01(WHEN MIN. R.F.=1)  AT K=   3, I=   2, J=  32


 TOTAL NUMBER OF POINT SOURCES/SINKS PRESENT IN THE FLOW MODEL =   240

 MAXIMUM STEPSIZE WHICH MEETS STABILITY CRITERION OF THE SINK & SOURCE TERM
 = 0.1000E+31(WHEN MIN. R.F.=1)  AT K=   0, I=   0, J=   0

 MAXIMUM STEPSIZE WHICH MEETS STABILITY CRITERION OF THE DISPERSION TERM
 = 0.5606E-02(WHEN MIN. R.F.=1)  AT K=   3, I=   2, J=  32
     1 CALLS TO GCG PACKAGE FOR TRANSPORT TIME STEP   2 IN FLOW TIME STEP  59 STRESS PERIOD   2
    12 TOTAL ITERATIONS
 
 SOLVING FOR HEAD 
 FLOW MODEL IS TRANSIENT
 FLOW MODEL CONTAINS CONSTANT-HEAD CELLS


 MAXIMUM STEPSIZE DURING WHICH ANY PARTICLE CANNOT MOVE MORE THAN ONE CELL
 = 0.1188    (WHEN MIN. R.F.=1)  AT K=   3, I=   2, J=  33

 MAXIMUM STEPSIZE WHICH MEETS STABILITY CRITERION OF THE ADVECTION TERM
 (FOR PURE FINITE-DIFFERENCE OPTION, MIXELM=0) 
 = 0.8139E-01(WHEN MIN. R.F.=1)  AT K=   3, I=   2, J=  32


 TOTAL NUMBER OF POINT SOURCES/SINKS PRESENT IN THE FLOW MODEL =   240

 MAXIMUM STEPSIZE WHICH MEETS STABILITY CRITERION OF THE SINK & SOURCE TERM
 = 0.1000E+31(WHEN MIN. R.F.=1)  AT K=   0, I=   0, J=   0

 MAXIMUM STEPSIZE WHICH MEETS STABILITY CRITERION OF THE DISPERSION TERM
 = 0.5606E-02(WHEN MIN. R.F.=1)  AT K=   3, I=   2, J=  32
     1 CALLS TO GCG PACKAGE FOR TRANSPORT TIME STEP   3 IN FLOW TIME STEP  59 STRESS PERIOD   2
    12 TOTAL ITERATIONS
 
 SOLVING FOR HEAD 
 FLOW MODEL IS TRANSIENT
 FLOW MODEL CONTAINS CONSTANT-HEAD CELLS


 MAXIMUM STEPSIZE DURING WHICH ANY PARTICLE CANNOT MOVE MORE THAN ONE CELL
 = 0.1188    (WHEN MIN. R.F.=1)  AT K=   3, I=   2, J=  33

 MAXIMUM STEPSIZE WHICH MEETS STABILITY CRITERION OF THE ADVECTION TERM
 (FOR PURE FINITE-DIFFERENCE OPTION, MIXELM=0) 
 = 0.8139E-01(WHEN MIN. R.F.=1)  AT K=   3, I=   2, J=  32


 TOTAL NUMBER OF POINT SOURCES/SINKS PRESENT IN THE FLOW MODEL =   240

 MAXIMUM STEPSIZE WHICH MEETS STABILITY CRITERION OF THE SINK & SOURCE TERM
 = 0.1000E+31(WHEN MIN. R.F.=1)  AT K=   0, I=   0, J=   0

 MAXIMUM STEPSIZE WHICH MEETS STABILITY CRITERION OF THE DISPERSION TERM
 = 0.5606E-02(WHEN MIN. R.F.=1)  AT K=   3, I=   2, J=  32
     1 CALLS TO GCG PACKAGE FOR TRANSPORT TIME STEP   4 IN FLOW TIME STEP  59 STRESS PERIOD   2
    12 TOTAL ITERATIONS
 
 SOLVING FOR HEAD 
 FLOW MODEL IS TRANSIENT
 FLOW MODEL CONTAINS CONSTANT-HEAD CELLS


 MAXIMUM STEPSIZE DURING WHICH ANY PARTICLE CANNOT MOVE MORE THAN ONE CELL
 = 0.1188    (WHEN MIN. R.F.=1)  AT K=   3, I=   2, J=  33

 MAXIMUM STEPSIZE WHICH MEETS STABILITY CRITERION OF THE ADVECTION TERM
 (FOR PURE FINITE-DIFFERENCE OPTION, MIXELM=0) 
 = 0.8139E-01(WHEN MIN. R.F.=1)  AT K=   3, I=   2, J=  32


 TOTAL NUMBER OF POINT SOURCES/SINKS PRESENT IN THE FLOW MODEL =   240

 MAXIMUM STEPSIZE WHICH MEETS STABILITY CRITERION OF THE SINK & SOURCE TERM
 = 0.1000E+31(WHEN MIN. R.F.=1)  AT K=   0, I=   0, J=   0

 MAXIMUM STEPSIZE WHICH MEETS STABILITY CRITERION OF THE DISPERSION TERM
 = 0.5606E-02(WHEN MIN. R.F.=1)  AT K=   3, I=   2, J=  32
     1 CALLS TO GCG PACKAGE FOR TRANSPORT TIME STEP   5 IN FLOW TIME STEP  59 STRESS PERIOD   2
    12 TOTAL ITERATIONS
 
 SOLVING FOR HEAD 
 FLOW MODEL IS TRANSIENT
 FLOW MODEL CONTAINS CONSTANT-HEAD CELLS


 MAXIMUM STEPSIZE DURING WHICH ANY PARTICLE CANNOT MOVE MORE THAN ONE CELL
 = 0.1188    (WHEN MIN. R.F.=1)  AT K=   3, I=   2, J=  33

 MAXIMUM STEPSIZE WHICH MEETS STABILITY CRITERION OF THE ADVECTION TERM
 (FOR PURE FINITE-DIFFERENCE OPTION, MIXELM=0) 
 = 0.8139E-01(WHEN MIN. R.F.=1)  AT K=   3, I=   2, J=  32


 TOTAL NUMBER OF POINT SOURCES/SINKS PRESENT IN THE FLOW MODEL =   240

 MAXIMUM STEPSIZE WHICH MEETS STABILITY CRITERION OF THE SINK & SOURCE TERM
 = 0.1000E+31(WHEN MIN. R.F.=1)  AT K=   0, I=   0, J=   0

 MAXIMUM STEPSIZE WHICH MEETS STABILITY CRITERION OF THE DISPERSION TERM
 = 0.5606E-02(WHEN MIN. R.F.=1)  AT K=   3, I=   2, J=  32
     1 CALLS TO GCG PACKAGE FOR TRANSPORT TIME STEP   6 IN FLOW TIME STEP  59 STRESS PERIOD   2
    12 TOTAL ITERATIONS
 
 SOLVING FOR HEAD 
 FLOW MODEL IS TRANSIENT
 FLOW MODEL CONTAINS CONSTANT-HEAD CELLS


 MAXIMUM STEPSIZE DURING WHICH ANY PARTICLE CANNOT MOVE MORE THAN ONE CELL
 = 0.1188    (WHEN MIN. R.F.=1)  AT K=   3, I=   2, J=  33

 MAXIMUM STEPSIZE WHICH MEETS STABILITY CRITERION OF THE ADVECTION TERM
 (FOR PURE FINITE-DIFFERENCE OPTION, MIXELM=0) 
 = 0.8139E-01(WHEN MIN. R.F.=1)  AT K=   3, I=   2, J=  32


 TOTAL NUMBER OF POINT SOURCES/SINKS PRESENT IN THE FLOW MODEL =   240

 MAXIMUM STEPSIZE WHICH MEETS STABILITY CRITERION OF THE SINK & SOURCE TERM
 = 0.1000E+31(WHEN MIN. R.F.=1)  AT K=   0, I=   0, J=   0

 MAXIMUM STEPSIZE WHICH MEETS STABILITY CRITERION OF THE DISPERSION TERM
 = 0.5606E-02(WHEN MIN. R.F.=1)  AT K=   3, I=   2, J=  32
     1 CALLS TO GCG PACKAGE FOR TRANSPORT TIME STEP   7 IN FLOW TIME STEP  59 STRESS PERIOD   2
    12 TOTAL ITERATIONS
 
 SOLVING FOR HEAD 
 FLOW MODEL IS TRANSIENT
 FLOW MODEL CONTAINS CONSTANT-HEAD CELLS


 MAXIMUM STEPSIZE DURING WHICH ANY PARTICLE CANNOT MOVE MORE THAN ONE CELL
 = 0.1188    (WHEN MIN. R.F.=1)  AT K=   3, I=   2, J=  33

 MAXIMUM STEPSIZE WHICH MEETS STABILITY CRITERION OF THE ADVECTION TERM
 (FOR PURE FINITE-DIFFERENCE OPTION, MIXELM=0) 
 = 0.8139E-01(WHEN MIN. R.F.=1)  AT K=   3, I=   2, J=  32


 TOTAL NUMBER OF POINT SOURCES/SINKS PRESENT IN THE FLOW MODEL =   240

 MAXIMUM STEPSIZE WHICH MEETS STABILITY CRITERION OF THE SINK & SOURCE TERM
 = 0.1000E+31(WHEN MIN. R.F.=1)  AT K=   0, I=   0, J=   0

 MAXIMUM STEPSIZE WHICH MEETS STABILITY CRITERION OF THE DISPERSION TERM
 = 0.5606E-02(WHEN MIN. R.F.=1)  AT K=   3, I=   2, J=  32
     1 CALLS TO GCG PACKAGE FOR TRANSPORT TIME STEP   8 IN FLOW TIME STEP  59 STRESS PERIOD   2
    12 TOTAL ITERATIONS
 
 SOLVING FOR HEAD 
 FLOW MODEL IS TRANSIENT
 FLOW MODEL CONTAINS CONSTANT-HEAD CELLS


 MAXIMUM STEPSIZE DURING WHICH ANY PARTICLE CANNOT MOVE MORE THAN ONE CELL
 = 0.1188    (WHEN MIN. R.F.=1)  AT K=   3, I=   2, J=  33

 MAXIMUM STEPSIZE WHICH MEETS STABILITY CRITERION OF THE ADVECTION TERM
 (FOR PURE FINITE-DIFFERENCE OPTION, MIXELM=0) 
 = 0.8139E-01(WHEN MIN. R.F.=1)  AT K=   3, I=   2, J=  32


 TOTAL NUMBER OF POINT SOURCES/SINKS PRESENT IN THE FLOW MODEL =   240

 MAXIMUM STEPSIZE WHICH MEETS STABILITY CRITERION OF THE SINK & SOURCE TERM
 = 0.1000E+31(WHEN MIN. R.F.=1)  AT K=   0, I=   0, J=   0

 MAXIMUM STEPSIZE WHICH MEETS STABILITY CRITERION OF THE DISPERSION TERM
 = 0.5606E-02(WHEN MIN. R.F.=1)  AT K=   3, I=   2, J=  32
     1 CALLS TO GCG PACKAGE FOR TRANSPORT TIME STEP   9 IN FLOW TIME STEP  59 STRESS PERIOD   2
    12 TOTAL ITERATIONS
 
 SOLVING FOR HEAD 
 FLOW MODEL IS TRANSIENT
 FLOW MODEL CONTAINS CONSTANT-HEAD CELLS


 MAXIMUM STEPSIZE DURING WHICH ANY PARTICLE CANNOT MOVE MORE THAN ONE CELL
 = 0.1188    (WHEN MIN. R.F.=1)  AT K=   3, I=   2, J=  33

 MAXIMUM STEPSIZE WHICH MEETS STABILITY CRITERION OF THE ADVECTION TERM
 (FOR PURE FINITE-DIFFERENCE OPTION, MIXELM=0) 
 = 0.8139E-01(WHEN MIN. R.F.=1)  AT K=   3, I=   2, J=  32


 TOTAL NUMBER OF POINT SOURCES/SINKS PRESENT IN THE FLOW MODEL =   240

 MAXIMUM STEPSIZE WHICH MEETS STABILITY CRITERION OF THE SINK & SOURCE TERM
 = 0.1000E+31(WHEN MIN. R.F.=1)  AT K=   0, I=   0, J=   0

 MAXIMUM STEPSIZE WHICH MEETS STABILITY CRITERION OF THE DISPERSION TERM
 = 0.5606E-02(WHEN MIN. R.F.=1)  AT K=   3, I=   2, J=  32
     1 CALLS TO GCG PACKAGE FOR TRANSPORT TIME STEP  10 IN FLOW TIME STEP  59 STRESS PERIOD   2
    12 TOTAL ITERATIONS



 >>>>>>>>>>>>>>>>>>>>>>>>>>>>>>>>>>>>>>>>>>>>>>>>>>>>>>>FOR COMPONENT NO. 01<<<<<<<<<<<<<<<<<<<<<<<<<<<<<<<<<<<<<<<<<<<<<<<<<<<<<<<


                                            -------------------------------------------
                                                      TRANSPORT STEP NO.   10
                                            -------------------------------------------

 TOTAL ELAPSED TIME SINCE BEGINNING OF SIMULATION =   59.89067    D   
 .....................................................................

                     CUMULATIVE MASS BUDGETS AT END OF TRANSPORT STEP   10, TIME STEP   59, STRESS PERIOD    2
                     ------------------------------------------------------------------------------------------

                                                             IN                           OUT
                                                      ----------------             ----------------
                               CONSTANT CONCENTRATION:    9753.268                   -5178.130    
                                        CONSTANT HEAD:    0.000000                    0.000000    
                               MASS STOR (FLOW MODEL):   0.1274882E-01              -0.3352281E-02
                                MASS STORAGE (SOLUTE):    3.890176                   -4579.040    
                            ---------------------------------------------------------------------------
                                              [TOTAL]:    9757.171     KG            -9757.174     KG  

                                                          NET (IN - OUT):  -0.2933197E-02
                                                   DISCREPANCY (PERCENT):  -0.3006195E-04
 
 SOLVING FOR HEAD 
 FLOW MODEL IS TRANSIENT
 FLOW MODEL CONTAINS CONSTANT-HEAD CELLS


 MAXIMUM STEPSIZE DURING WHICH ANY PARTICLE CANNOT MOVE MORE THAN ONE CELL
 = 0.1188    (WHEN MIN. R.F.=1)  AT K=   3, I=   2, J=  33

 MAXIMUM STEPSIZE WHICH MEETS STABILITY CRITERION OF THE ADVECTION TERM
 (FOR PURE FINITE-DIFFERENCE OPTION, MIXELM=0) 
 = 0.8139E-01(WHEN MIN. R.F.=1)  AT K=   3, I=   2, J=  32


 TOTAL NUMBER OF POINT SOURCES/SINKS PRESENT IN THE FLOW MODEL =   240

 MAXIMUM STEPSIZE WHICH MEETS STABILITY CRITERION OF THE SINK & SOURCE TERM
 = 0.1000E+31(WHEN MIN. R.F.=1)  AT K=   0, I=   0, J=   0

 MAXIMUM STEPSIZE WHICH MEETS STABILITY CRITERION OF THE DISPERSION TERM
 = 0.5606E-02(WHEN MIN. R.F.=1)  AT K=   3, I=   2, J=  32
     1 CALLS TO GCG PACKAGE FOR TRANSPORT TIME STEP  11 IN FLOW TIME STEP  59 STRESS PERIOD   2
    12 TOTAL ITERATIONS
 
 SOLVING FOR HEAD 
 FLOW MODEL IS TRANSIENT
 FLOW MODEL CONTAINS CONSTANT-HEAD CELLS


 MAXIMUM STEPSIZE DURING WHICH ANY PARTICLE CANNOT MOVE MORE THAN ONE CELL
 = 0.1188    (WHEN MIN. R.F.=1)  AT K=   3, I=   2, J=  33

 MAXIMUM STEPSIZE WHICH MEETS STABILITY CRITERION OF THE ADVECTION TERM
 (FOR PURE FINITE-DIFFERENCE OPTION, MIXELM=0) 
 = 0.8139E-01(WHEN MIN. R.F.=1)  AT K=   3, I=   2, J=  32


 TOTAL NUMBER OF POINT SOURCES/SINKS PRESENT IN THE FLOW MODEL =   240

 MAXIMUM STEPSIZE WHICH MEETS STABILITY CRITERION OF THE SINK & SOURCE TERM
 = 0.1000E+31(WHEN MIN. R.F.=1)  AT K=   0, I=   0, J=   0

 MAXIMUM STEPSIZE WHICH MEETS STABILITY CRITERION OF THE DISPERSION TERM
 = 0.5606E-02(WHEN MIN. R.F.=1)  AT K=   3, I=   2, J=  32
     1 CALLS TO GCG PACKAGE FOR TRANSPORT TIME STEP  12 IN FLOW TIME STEP  59 STRESS PERIOD   2
     6 TOTAL ITERATIONS
  MAXIMUM CONCENTRATION CHANGES FOR EACH ITERATION:
  MAX. CHANGE LAYER,ROW,COL MAX. CHANGE LAYER,ROW,COL MAX. CHANGE LAYER,ROW,COL MAX. CHANGE LAYER,ROW,COL MAX. CHANGE LAYER,ROW,COL
 ------------------------------------------------------------------------------------------------------------------------------------
   0.1482E-03 ( 14,  2, 57)  0.1105E-04 (  6,  2, 60)  0.1623E-05 (  5,  2, 57)  0.4114E-06 (  7,  2, 60)  0.1878E-06 (  4,  2, 33)
   0.7323E-07 (  3,  2, 32)


                                          ================================================
                                                         FROM TIME =   60.000     TO    61.000    

 
 SOLVING FOR HEAD 
 FLOW MODEL IS TRANSIENT
 FLOW MODEL CONTAINS CONSTANT-HEAD CELLS


 MAXIMUM STEPSIZE DURING WHICH ANY PARTICLE CANNOT MOVE MORE THAN ONE CELL
 = 0.1188    (WHEN MIN. R.F.=1)  AT K=   3, I=   2, J=  33

 MAXIMUM STEPSIZE WHICH MEETS STABILITY CRITERION OF THE ADVECTION TERM
 (FOR PURE FINITE-DIFFERENCE OPTION, MIXELM=0) 
 = 0.8139E-01(WHEN MIN. R.F.=1)  AT K=   3, I=   2, J=  32


 TOTAL NUMBER OF POINT SOURCES/SINKS PRESENT IN THE FLOW MODEL =   240

 MAXIMUM STEPSIZE WHICH MEETS STABILITY CRITERION OF THE SINK & SOURCE TERM
 = 0.1000E+31(WHEN MIN. R.F.=1)  AT K=   0, I=   0, J=   0

 MAXIMUM STEPSIZE WHICH MEETS STABILITY CRITERION OF THE DISPERSION TERM
 = 0.5606E-02(WHEN MIN. R.F.=1)  AT K=   3, I=   2, J=  32


     1 CALLS TO GCG PACKAGE FOR TRANSPORT TIME STEP   1 IN FLOW TIME STEP  60 STRESS PERIOD   2
    12 TOTAL ITERATIONS

 NO OUTPUT CONTROL FOR STRESS PERIOD    2   TIME STEP  60
 
 SOLVING FOR HEAD 
 FLOW MODEL IS TRANSIENT
 FLOW MODEL CONTAINS CONSTANT-HEAD CELLS


 MAXIMUM STEPSIZE DURING WHICH ANY PARTICLE CANNOT MOVE MORE THAN ONE CELL
 = 0.1188    (WHEN MIN. R.F.=1)  AT K=   3, I=   2, J=  33

 MAXIMUM STEPSIZE WHICH MEETS STABILITY CRITERION OF THE ADVECTION TERM
 (FOR PURE FINITE-DIFFERENCE OPTION, MIXELM=0) 
 = 0.8139E-01(WHEN MIN. R.F.=1)  AT K=   3, I=   2, J=  32


 TOTAL NUMBER OF POINT SOURCES/SINKS PRESENT IN THE FLOW MODEL =   240

 MAXIMUM STEPSIZE WHICH MEETS STABILITY CRITERION OF THE SINK & SOURCE TERM
 = 0.1000E+31(WHEN MIN. R.F.=1)  AT K=   0, I=   0, J=   0

 MAXIMUM STEPSIZE WHICH MEETS STABILITY CRITERION OF THE DISPERSION TERM
 = 0.5606E-02(WHEN MIN. R.F.=1)  AT K=   3, I=   2, J=  32
     1 CALLS TO GCG PACKAGE FOR TRANSPORT TIME STEP   2 IN FLOW TIME STEP  60 STRESS PERIOD   2
    12 TOTAL ITERATIONS
 
 SOLVING FOR HEAD 
 FLOW MODEL IS TRANSIENT
 FLOW MODEL CONTAINS CONSTANT-HEAD CELLS


 MAXIMUM STEPSIZE DURING WHICH ANY PARTICLE CANNOT MOVE MORE THAN ONE CELL
 = 0.1188    (WHEN MIN. R.F.=1)  AT K=   3, I=   2, J=  33

 MAXIMUM STEPSIZE WHICH MEETS STABILITY CRITERION OF THE ADVECTION TERM
 (FOR PURE FINITE-DIFFERENCE OPTION, MIXELM=0) 
 = 0.8139E-01(WHEN MIN. R.F.=1)  AT K=   3, I=   2, J=  32


 TOTAL NUMBER OF POINT SOURCES/SINKS PRESENT IN THE FLOW MODEL =   240

 MAXIMUM STEPSIZE WHICH MEETS STABILITY CRITERION OF THE SINK & SOURCE TERM
 = 0.1000E+31(WHEN MIN. R.F.=1)  AT K=   0, I=   0, J=   0

 MAXIMUM STEPSIZE WHICH MEETS STABILITY CRITERION OF THE DISPERSION TERM
 = 0.5606E-02(WHEN MIN. R.F.=1)  AT K=   3, I=   2, J=  32
     1 CALLS TO GCG PACKAGE FOR TRANSPORT TIME STEP   3 IN FLOW TIME STEP  60 STRESS PERIOD   2
    12 TOTAL ITERATIONS
 
 SOLVING FOR HEAD 
 FLOW MODEL IS TRANSIENT
 FLOW MODEL CONTAINS CONSTANT-HEAD CELLS


 MAXIMUM STEPSIZE DURING WHICH ANY PARTICLE CANNOT MOVE MORE THAN ONE CELL
 = 0.1188    (WHEN MIN. R.F.=1)  AT K=   3, I=   2, J=  33

 MAXIMUM STEPSIZE WHICH MEETS STABILITY CRITERION OF THE ADVECTION TERM
 (FOR PURE FINITE-DIFFERENCE OPTION, MIXELM=0) 
 = 0.8139E-01(WHEN MIN. R.F.=1)  AT K=   3, I=   2, J=  32


 TOTAL NUMBER OF POINT SOURCES/SINKS PRESENT IN THE FLOW MODEL =   240

 MAXIMUM STEPSIZE WHICH MEETS STABILITY CRITERION OF THE SINK & SOURCE TERM
 = 0.1000E+31(WHEN MIN. R.F.=1)  AT K=   0, I=   0, J=   0

 MAXIMUM STEPSIZE WHICH MEETS STABILITY CRITERION OF THE DISPERSION TERM
 = 0.5606E-02(WHEN MIN. R.F.=1)  AT K=   3, I=   2, J=  32
     1 CALLS TO GCG PACKAGE FOR TRANSPORT TIME STEP   4 IN FLOW TIME STEP  60 STRESS PERIOD   2
    12 TOTAL ITERATIONS
 
 SOLVING FOR HEAD 
 FLOW MODEL IS TRANSIENT
 FLOW MODEL CONTAINS CONSTANT-HEAD CELLS


 MAXIMUM STEPSIZE DURING WHICH ANY PARTICLE CANNOT MOVE MORE THAN ONE CELL
 = 0.1188    (WHEN MIN. R.F.=1)  AT K=   3, I=   2, J=  33

 MAXIMUM STEPSIZE WHICH MEETS STABILITY CRITERION OF THE ADVECTION TERM
 (FOR PURE FINITE-DIFFERENCE OPTION, MIXELM=0) 
 = 0.8139E-01(WHEN MIN. R.F.=1)  AT K=   3, I=   2, J=  32


 TOTAL NUMBER OF POINT SOURCES/SINKS PRESENT IN THE FLOW MODEL =   240

 MAXIMUM STEPSIZE WHICH MEETS STABILITY CRITERION OF THE SINK & SOURCE TERM
 = 0.1000E+31(WHEN MIN. R.F.=1)  AT K=   0, I=   0, J=   0

 MAXIMUM STEPSIZE WHICH MEETS STABILITY CRITERION OF THE DISPERSION TERM
 = 0.5606E-02(WHEN MIN. R.F.=1)  AT K=   3, I=   2, J=  32
     1 CALLS TO GCG PACKAGE FOR TRANSPORT TIME STEP   5 IN FLOW TIME STEP  60 STRESS PERIOD   2
    12 TOTAL ITERATIONS
 
 SOLVING FOR HEAD 
 FLOW MODEL IS TRANSIENT
 FLOW MODEL CONTAINS CONSTANT-HEAD CELLS


 MAXIMUM STEPSIZE DURING WHICH ANY PARTICLE CANNOT MOVE MORE THAN ONE CELL
 = 0.1188    (WHEN MIN. R.F.=1)  AT K=   3, I=   2, J=  33

 MAXIMUM STEPSIZE WHICH MEETS STABILITY CRITERION OF THE ADVECTION TERM
 (FOR PURE FINITE-DIFFERENCE OPTION, MIXELM=0) 
 = 0.8139E-01(WHEN MIN. R.F.=1)  AT K=   3, I=   2, J=  32


 TOTAL NUMBER OF POINT SOURCES/SINKS PRESENT IN THE FLOW MODEL =   240

 MAXIMUM STEPSIZE WHICH MEETS STABILITY CRITERION OF THE SINK & SOURCE TERM
 = 0.1000E+31(WHEN MIN. R.F.=1)  AT K=   0, I=   0, J=   0

 MAXIMUM STEPSIZE WHICH MEETS STABILITY CRITERION OF THE DISPERSION TERM
 = 0.5606E-02(WHEN MIN. R.F.=1)  AT K=   3, I=   2, J=  32
     1 CALLS TO GCG PACKAGE FOR TRANSPORT TIME STEP   6 IN FLOW TIME STEP  60 STRESS PERIOD   2
    12 TOTAL ITERATIONS
 
 SOLVING FOR HEAD 
 FLOW MODEL IS TRANSIENT
 FLOW MODEL CONTAINS CONSTANT-HEAD CELLS


 MAXIMUM STEPSIZE DURING WHICH ANY PARTICLE CANNOT MOVE MORE THAN ONE CELL
 = 0.1188    (WHEN MIN. R.F.=1)  AT K=   3, I=   2, J=  33

 MAXIMUM STEPSIZE WHICH MEETS STABILITY CRITERION OF THE ADVECTION TERM
 (FOR PURE FINITE-DIFFERENCE OPTION, MIXELM=0) 
 = 0.8139E-01(WHEN MIN. R.F.=1)  AT K=   3, I=   2, J=  32


 TOTAL NUMBER OF POINT SOURCES/SINKS PRESENT IN THE FLOW MODEL =   240

 MAXIMUM STEPSIZE WHICH MEETS STABILITY CRITERION OF THE SINK & SOURCE TERM
 = 0.1000E+31(WHEN MIN. R.F.=1)  AT K=   0, I=   0, J=   0

 MAXIMUM STEPSIZE WHICH MEETS STABILITY CRITERION OF THE DISPERSION TERM
 = 0.5606E-02(WHEN MIN. R.F.=1)  AT K=   3, I=   2, J=  32
     1 CALLS TO GCG PACKAGE FOR TRANSPORT TIME STEP   7 IN FLOW TIME STEP  60 STRESS PERIOD   2
    12 TOTAL ITERATIONS
 
 SOLVING FOR HEAD 
 FLOW MODEL IS TRANSIENT
 FLOW MODEL CONTAINS CONSTANT-HEAD CELLS


 MAXIMUM STEPSIZE DURING WHICH ANY PARTICLE CANNOT MOVE MORE THAN ONE CELL
 = 0.1188    (WHEN MIN. R.F.=1)  AT K=   3, I=   2, J=  33

 MAXIMUM STEPSIZE WHICH MEETS STABILITY CRITERION OF THE ADVECTION TERM
 (FOR PURE FINITE-DIFFERENCE OPTION, MIXELM=0) 
 = 0.8139E-01(WHEN MIN. R.F.=1)  AT K=   3, I=   2, J=  32


 TOTAL NUMBER OF POINT SOURCES/SINKS PRESENT IN THE FLOW MODEL =   240

 MAXIMUM STEPSIZE WHICH MEETS STABILITY CRITERION OF THE SINK & SOURCE TERM
 = 0.1000E+31(WHEN MIN. R.F.=1)  AT K=   0, I=   0, J=   0

 MAXIMUM STEPSIZE WHICH MEETS STABILITY CRITERION OF THE DISPERSION TERM
 = 0.5606E-02(WHEN MIN. R.F.=1)  AT K=   3, I=   2, J=  32
     1 CALLS TO GCG PACKAGE FOR TRANSPORT TIME STEP   8 IN FLOW TIME STEP  60 STRESS PERIOD   2
    12 TOTAL ITERATIONS
 
 SOLVING FOR HEAD 
 FLOW MODEL IS TRANSIENT
 FLOW MODEL CONTAINS CONSTANT-HEAD CELLS


 MAXIMUM STEPSIZE DURING WHICH ANY PARTICLE CANNOT MOVE MORE THAN ONE CELL
 = 0.1188    (WHEN MIN. R.F.=1)  AT K=   3, I=   2, J=  33

 MAXIMUM STEPSIZE WHICH MEETS STABILITY CRITERION OF THE ADVECTION TERM
 (FOR PURE FINITE-DIFFERENCE OPTION, MIXELM=0) 
 = 0.8139E-01(WHEN MIN. R.F.=1)  AT K=   3, I=   2, J=  32


 TOTAL NUMBER OF POINT SOURCES/SINKS PRESENT IN THE FLOW MODEL =   240

 MAXIMUM STEPSIZE WHICH MEETS STABILITY CRITERION OF THE SINK & SOURCE TERM
 = 0.1000E+31(WHEN MIN. R.F.=1)  AT K=   0, I=   0, J=   0

 MAXIMUM STEPSIZE WHICH MEETS STABILITY CRITERION OF THE DISPERSION TERM
 = 0.5606E-02(WHEN MIN. R.F.=1)  AT K=   3, I=   2, J=  32
     1 CALLS TO GCG PACKAGE FOR TRANSPORT TIME STEP   9 IN FLOW TIME STEP  60 STRESS PERIOD   2
    12 TOTAL ITERATIONS
 
 SOLVING FOR HEAD 
 FLOW MODEL IS TRANSIENT
 FLOW MODEL CONTAINS CONSTANT-HEAD CELLS


 MAXIMUM STEPSIZE DURING WHICH ANY PARTICLE CANNOT MOVE MORE THAN ONE CELL
 = 0.1188    (WHEN MIN. R.F.=1)  AT K=   3, I=   2, J=  33

 MAXIMUM STEPSIZE WHICH MEETS STABILITY CRITERION OF THE ADVECTION TERM
 (FOR PURE FINITE-DIFFERENCE OPTION, MIXELM=0) 
 = 0.8139E-01(WHEN MIN. R.F.=1)  AT K=   3, I=   2, J=  32


 TOTAL NUMBER OF POINT SOURCES/SINKS PRESENT IN THE FLOW MODEL =   240

 MAXIMUM STEPSIZE WHICH MEETS STABILITY CRITERION OF THE SINK & SOURCE TERM
 = 0.1000E+31(WHEN MIN. R.F.=1)  AT K=   0, I=   0, J=   0

 MAXIMUM STEPSIZE WHICH MEETS STABILITY CRITERION OF THE DISPERSION TERM
 = 0.5606E-02(WHEN MIN. R.F.=1)  AT K=   3, I=   2, J=  32
     1 CALLS TO GCG PACKAGE FOR TRANSPORT TIME STEP  10 IN FLOW TIME STEP  60 STRESS PERIOD   2
    12 TOTAL ITERATIONS



 >>>>>>>>>>>>>>>>>>>>>>>>>>>>>>>>>>>>>>>>>>>>>>>>>>>>>>>FOR COMPONENT NO. 01<<<<<<<<<<<<<<<<<<<<<<<<<<<<<<<<<<<<<<<<<<<<<<<<<<<<<<<


                                            -------------------------------------------
                                                      TRANSPORT STEP NO.   10
                                            -------------------------------------------

 TOTAL ELAPSED TIME SINCE BEGINNING OF SIMULATION =   60.89064    D   
 .....................................................................

                     CUMULATIVE MASS BUDGETS AT END OF TRANSPORT STEP   10, TIME STEP   60, STRESS PERIOD    2
                     ------------------------------------------------------------------------------------------

                                                             IN                           OUT
                                                      ----------------             ----------------
                               CONSTANT CONCENTRATION:    9862.750                   -5270.716    
                                        CONSTANT HEAD:    0.000000                    0.000000    
                               MASS STOR (FLOW MODEL):   0.1276591E-01              -0.3356704E-02
                                MASS STORAGE (SOLUTE):    4.248600                   -4596.295    
                            ---------------------------------------------------------------------------
                                              [TOTAL]:    9867.011     KG            -9867.014     KG  

                                                          NET (IN - OUT):  -0.2948289E-02
                                                   DISCREPANCY (PERCENT):  -0.2988026E-04
 
 SOLVING FOR HEAD 
 FLOW MODEL IS TRANSIENT
 FLOW MODEL CONTAINS CONSTANT-HEAD CELLS


 MAXIMUM STEPSIZE DURING WHICH ANY PARTICLE CANNOT MOVE MORE THAN ONE CELL
 = 0.1188    (WHEN MIN. R.F.=1)  AT K=   3, I=   2, J=  33

 MAXIMUM STEPSIZE WHICH MEETS STABILITY CRITERION OF THE ADVECTION TERM
 (FOR PURE FINITE-DIFFERENCE OPTION, MIXELM=0) 
 = 0.8139E-01(WHEN MIN. R.F.=1)  AT K=   3, I=   2, J=  32


 TOTAL NUMBER OF POINT SOURCES/SINKS PRESENT IN THE FLOW MODEL =   240

 MAXIMUM STEPSIZE WHICH MEETS STABILITY CRITERION OF THE SINK & SOURCE TERM
 = 0.1000E+31(WHEN MIN. R.F.=1)  AT K=   0, I=   0, J=   0

 MAXIMUM STEPSIZE WHICH MEETS STABILITY CRITERION OF THE DISPERSION TERM
 = 0.5606E-02(WHEN MIN. R.F.=1)  AT K=   3, I=   2, J=  32
     1 CALLS TO GCG PACKAGE FOR TRANSPORT TIME STEP  11 IN FLOW TIME STEP  60 STRESS PERIOD   2
    12 TOTAL ITERATIONS
 
 SOLVING FOR HEAD 
 FLOW MODEL IS TRANSIENT
 FLOW MODEL CONTAINS CONSTANT-HEAD CELLS


 MAXIMUM STEPSIZE DURING WHICH ANY PARTICLE CANNOT MOVE MORE THAN ONE CELL
 = 0.1188    (WHEN MIN. R.F.=1)  AT K=   3, I=   2, J=  33

 MAXIMUM STEPSIZE WHICH MEETS STABILITY CRITERION OF THE ADVECTION TERM
 (FOR PURE FINITE-DIFFERENCE OPTION, MIXELM=0) 
 = 0.8139E-01(WHEN MIN. R.F.=1)  AT K=   3, I=   2, J=  32


 TOTAL NUMBER OF POINT SOURCES/SINKS PRESENT IN THE FLOW MODEL =   240

 MAXIMUM STEPSIZE WHICH MEETS STABILITY CRITERION OF THE SINK & SOURCE TERM
 = 0.1000E+31(WHEN MIN. R.F.=1)  AT K=   0, I=   0, J=   0

 MAXIMUM STEPSIZE WHICH MEETS STABILITY CRITERION OF THE DISPERSION TERM
 = 0.5606E-02(WHEN MIN. R.F.=1)  AT K=   3, I=   2, J=  32
     1 CALLS TO GCG PACKAGE FOR TRANSPORT TIME STEP  12 IN FLOW TIME STEP  60 STRESS PERIOD   2
     6 TOTAL ITERATIONS
  MAXIMUM CONCENTRATION CHANGES FOR EACH ITERATION:
  MAX. CHANGE LAYER,ROW,COL MAX. CHANGE LAYER,ROW,COL MAX. CHANGE LAYER,ROW,COL MAX. CHANGE LAYER,ROW,COL MAX. CHANGE LAYER,ROW,COL
 ------------------------------------------------------------------------------------------------------------------------------------
   0.1463E-03 ( 14,  2, 57)  0.1068E-04 (  6,  2, 60)  0.1570E-05 (  5,  2, 57)  0.3958E-06 (  7,  2, 60)  0.1800E-06 (  4,  2, 33)
   0.7051E-07 (  3,  2, 32)


                                          ================================================
                                                         FROM TIME =   61.000     TO    62.000    

 
 SOLVING FOR HEAD 
 FLOW MODEL IS TRANSIENT
 FLOW MODEL CONTAINS CONSTANT-HEAD CELLS


 MAXIMUM STEPSIZE DURING WHICH ANY PARTICLE CANNOT MOVE MORE THAN ONE CELL
 = 0.1188    (WHEN MIN. R.F.=1)  AT K=   3, I=   2, J=  33

 MAXIMUM STEPSIZE WHICH MEETS STABILITY CRITERION OF THE ADVECTION TERM
 (FOR PURE FINITE-DIFFERENCE OPTION, MIXELM=0) 
 = 0.8139E-01(WHEN MIN. R.F.=1)  AT K=   3, I=   2, J=  32


 TOTAL NUMBER OF POINT SOURCES/SINKS PRESENT IN THE FLOW MODEL =   240

 MAXIMUM STEPSIZE WHICH MEETS STABILITY CRITERION OF THE SINK & SOURCE TERM
 = 0.1000E+31(WHEN MIN. R.F.=1)  AT K=   0, I=   0, J=   0

 MAXIMUM STEPSIZE WHICH MEETS STABILITY CRITERION OF THE DISPERSION TERM
 = 0.5606E-02(WHEN MIN. R.F.=1)  AT K=   3, I=   2, J=  32


     1 CALLS TO GCG PACKAGE FOR TRANSPORT TIME STEP   1 IN FLOW TIME STEP  61 STRESS PERIOD   2
    12 TOTAL ITERATIONS

 NO OUTPUT CONTROL FOR STRESS PERIOD    2   TIME STEP  61
 
 SOLVING FOR HEAD 
 FLOW MODEL IS TRANSIENT
 FLOW MODEL CONTAINS CONSTANT-HEAD CELLS


 MAXIMUM STEPSIZE DURING WHICH ANY PARTICLE CANNOT MOVE MORE THAN ONE CELL
 = 0.1188    (WHEN MIN. R.F.=1)  AT K=   3, I=   2, J=  33

 MAXIMUM STEPSIZE WHICH MEETS STABILITY CRITERION OF THE ADVECTION TERM
 (FOR PURE FINITE-DIFFERENCE OPTION, MIXELM=0) 
 = 0.8139E-01(WHEN MIN. R.F.=1)  AT K=   3, I=   2, J=  32


 TOTAL NUMBER OF POINT SOURCES/SINKS PRESENT IN THE FLOW MODEL =   240

 MAXIMUM STEPSIZE WHICH MEETS STABILITY CRITERION OF THE SINK & SOURCE TERM
 = 0.1000E+31(WHEN MIN. R.F.=1)  AT K=   0, I=   0, J=   0

 MAXIMUM STEPSIZE WHICH MEETS STABILITY CRITERION OF THE DISPERSION TERM
 = 0.5606E-02(WHEN MIN. R.F.=1)  AT K=   3, I=   2, J=  32
     1 CALLS TO GCG PACKAGE FOR TRANSPORT TIME STEP   2 IN FLOW TIME STEP  61 STRESS PERIOD   2
    12 TOTAL ITERATIONS
 
 SOLVING FOR HEAD 
 FLOW MODEL IS TRANSIENT
 FLOW MODEL CONTAINS CONSTANT-HEAD CELLS


 MAXIMUM STEPSIZE DURING WHICH ANY PARTICLE CANNOT MOVE MORE THAN ONE CELL
 = 0.1188    (WHEN MIN. R.F.=1)  AT K=   3, I=   2, J=  33

 MAXIMUM STEPSIZE WHICH MEETS STABILITY CRITERION OF THE ADVECTION TERM
 (FOR PURE FINITE-DIFFERENCE OPTION, MIXELM=0) 
 = 0.8139E-01(WHEN MIN. R.F.=1)  AT K=   3, I=   2, J=  32


 TOTAL NUMBER OF POINT SOURCES/SINKS PRESENT IN THE FLOW MODEL =   240

 MAXIMUM STEPSIZE WHICH MEETS STABILITY CRITERION OF THE SINK & SOURCE TERM
 = 0.1000E+31(WHEN MIN. R.F.=1)  AT K=   0, I=   0, J=   0

 MAXIMUM STEPSIZE WHICH MEETS STABILITY CRITERION OF THE DISPERSION TERM
 = 0.5606E-02(WHEN MIN. R.F.=1)  AT K=   3, I=   2, J=  32
     1 CALLS TO GCG PACKAGE FOR TRANSPORT TIME STEP   3 IN FLOW TIME STEP  61 STRESS PERIOD   2
    12 TOTAL ITERATIONS
 
 SOLVING FOR HEAD 
 FLOW MODEL IS TRANSIENT
 FLOW MODEL CONTAINS CONSTANT-HEAD CELLS


 MAXIMUM STEPSIZE DURING WHICH ANY PARTICLE CANNOT MOVE MORE THAN ONE CELL
 = 0.1187    (WHEN MIN. R.F.=1)  AT K=   3, I=   2, J=  33

 MAXIMUM STEPSIZE WHICH MEETS STABILITY CRITERION OF THE ADVECTION TERM
 (FOR PURE FINITE-DIFFERENCE OPTION, MIXELM=0) 
 = 0.8139E-01(WHEN MIN. R.F.=1)  AT K=   3, I=   2, J=  32


 TOTAL NUMBER OF POINT SOURCES/SINKS PRESENT IN THE FLOW MODEL =   240

 MAXIMUM STEPSIZE WHICH MEETS STABILITY CRITERION OF THE SINK & SOURCE TERM
 = 0.1000E+31(WHEN MIN. R.F.=1)  AT K=   0, I=   0, J=   0

 MAXIMUM STEPSIZE WHICH MEETS STABILITY CRITERION OF THE DISPERSION TERM
 = 0.5606E-02(WHEN MIN. R.F.=1)  AT K=   3, I=   2, J=  32
     1 CALLS TO GCG PACKAGE FOR TRANSPORT TIME STEP   4 IN FLOW TIME STEP  61 STRESS PERIOD   2
    12 TOTAL ITERATIONS
 
 SOLVING FOR HEAD 
 FLOW MODEL IS TRANSIENT
 FLOW MODEL CONTAINS CONSTANT-HEAD CELLS


 MAXIMUM STEPSIZE DURING WHICH ANY PARTICLE CANNOT MOVE MORE THAN ONE CELL
 = 0.1187    (WHEN MIN. R.F.=1)  AT K=   3, I=   2, J=  33

 MAXIMUM STEPSIZE WHICH MEETS STABILITY CRITERION OF THE ADVECTION TERM
 (FOR PURE FINITE-DIFFERENCE OPTION, MIXELM=0) 
 = 0.8139E-01(WHEN MIN. R.F.=1)  AT K=   3, I=   2, J=  32


 TOTAL NUMBER OF POINT SOURCES/SINKS PRESENT IN THE FLOW MODEL =   240

 MAXIMUM STEPSIZE WHICH MEETS STABILITY CRITERION OF THE SINK & SOURCE TERM
 = 0.1000E+31(WHEN MIN. R.F.=1)  AT K=   0, I=   0, J=   0

 MAXIMUM STEPSIZE WHICH MEETS STABILITY CRITERION OF THE DISPERSION TERM
 = 0.5606E-02(WHEN MIN. R.F.=1)  AT K=   3, I=   2, J=  32
     1 CALLS TO GCG PACKAGE FOR TRANSPORT TIME STEP   5 IN FLOW TIME STEP  61 STRESS PERIOD   2
    12 TOTAL ITERATIONS
 
 SOLVING FOR HEAD 
 FLOW MODEL IS TRANSIENT
 FLOW MODEL CONTAINS CONSTANT-HEAD CELLS


 MAXIMUM STEPSIZE DURING WHICH ANY PARTICLE CANNOT MOVE MORE THAN ONE CELL
 = 0.1187    (WHEN MIN. R.F.=1)  AT K=   3, I=   2, J=  33

 MAXIMUM STEPSIZE WHICH MEETS STABILITY CRITERION OF THE ADVECTION TERM
 (FOR PURE FINITE-DIFFERENCE OPTION, MIXELM=0) 
 = 0.8139E-01(WHEN MIN. R.F.=1)  AT K=   3, I=   2, J=  32


 TOTAL NUMBER OF POINT SOURCES/SINKS PRESENT IN THE FLOW MODEL =   240

 MAXIMUM STEPSIZE WHICH MEETS STABILITY CRITERION OF THE SINK & SOURCE TERM
 = 0.1000E+31(WHEN MIN. R.F.=1)  AT K=   0, I=   0, J=   0

 MAXIMUM STEPSIZE WHICH MEETS STABILITY CRITERION OF THE DISPERSION TERM
 = 0.5606E-02(WHEN MIN. R.F.=1)  AT K=   3, I=   2, J=  32
     1 CALLS TO GCG PACKAGE FOR TRANSPORT TIME STEP   6 IN FLOW TIME STEP  61 STRESS PERIOD   2
    12 TOTAL ITERATIONS
 
 SOLVING FOR HEAD 
 FLOW MODEL IS TRANSIENT
 FLOW MODEL CONTAINS CONSTANT-HEAD CELLS


 MAXIMUM STEPSIZE DURING WHICH ANY PARTICLE CANNOT MOVE MORE THAN ONE CELL
 = 0.1187    (WHEN MIN. R.F.=1)  AT K=   3, I=   2, J=  33

 MAXIMUM STEPSIZE WHICH MEETS STABILITY CRITERION OF THE ADVECTION TERM
 (FOR PURE FINITE-DIFFERENCE OPTION, MIXELM=0) 
 = 0.8139E-01(WHEN MIN. R.F.=1)  AT K=   3, I=   2, J=  32


 TOTAL NUMBER OF POINT SOURCES/SINKS PRESENT IN THE FLOW MODEL =   240

 MAXIMUM STEPSIZE WHICH MEETS STABILITY CRITERION OF THE SINK & SOURCE TERM
 = 0.1000E+31(WHEN MIN. R.F.=1)  AT K=   0, I=   0, J=   0

 MAXIMUM STEPSIZE WHICH MEETS STABILITY CRITERION OF THE DISPERSION TERM
 = 0.5606E-02(WHEN MIN. R.F.=1)  AT K=   3, I=   2, J=  32
     1 CALLS TO GCG PACKAGE FOR TRANSPORT TIME STEP   7 IN FLOW TIME STEP  61 STRESS PERIOD   2
    12 TOTAL ITERATIONS
 
 SOLVING FOR HEAD 
 FLOW MODEL IS TRANSIENT
 FLOW MODEL CONTAINS CONSTANT-HEAD CELLS


 MAXIMUM STEPSIZE DURING WHICH ANY PARTICLE CANNOT MOVE MORE THAN ONE CELL
 = 0.1187    (WHEN MIN. R.F.=1)  AT K=   3, I=   2, J=  33

 MAXIMUM STEPSIZE WHICH MEETS STABILITY CRITERION OF THE ADVECTION TERM
 (FOR PURE FINITE-DIFFERENCE OPTION, MIXELM=0) 
 = 0.8139E-01(WHEN MIN. R.F.=1)  AT K=   3, I=   2, J=  32


 TOTAL NUMBER OF POINT SOURCES/SINKS PRESENT IN THE FLOW MODEL =   240

 MAXIMUM STEPSIZE WHICH MEETS STABILITY CRITERION OF THE SINK & SOURCE TERM
 = 0.1000E+31(WHEN MIN. R.F.=1)  AT K=   0, I=   0, J=   0

 MAXIMUM STEPSIZE WHICH MEETS STABILITY CRITERION OF THE DISPERSION TERM
 = 0.5606E-02(WHEN MIN. R.F.=1)  AT K=   3, I=   2, J=  32
     1 CALLS TO GCG PACKAGE FOR TRANSPORT TIME STEP   8 IN FLOW TIME STEP  61 STRESS PERIOD   2
    12 TOTAL ITERATIONS
 
 SOLVING FOR HEAD 
 FLOW MODEL IS TRANSIENT
 FLOW MODEL CONTAINS CONSTANT-HEAD CELLS


 MAXIMUM STEPSIZE DURING WHICH ANY PARTICLE CANNOT MOVE MORE THAN ONE CELL
 = 0.1187    (WHEN MIN. R.F.=1)  AT K=   3, I=   2, J=  33

 MAXIMUM STEPSIZE WHICH MEETS STABILITY CRITERION OF THE ADVECTION TERM
 (FOR PURE FINITE-DIFFERENCE OPTION, MIXELM=0) 
 = 0.8139E-01(WHEN MIN. R.F.=1)  AT K=   3, I=   2, J=  32


 TOTAL NUMBER OF POINT SOURCES/SINKS PRESENT IN THE FLOW MODEL =   240

 MAXIMUM STEPSIZE WHICH MEETS STABILITY CRITERION OF THE SINK & SOURCE TERM
 = 0.1000E+31(WHEN MIN. R.F.=1)  AT K=   0, I=   0, J=   0

 MAXIMUM STEPSIZE WHICH MEETS STABILITY CRITERION OF THE DISPERSION TERM
 = 0.5606E-02(WHEN MIN. R.F.=1)  AT K=   3, I=   2, J=  32
     1 CALLS TO GCG PACKAGE FOR TRANSPORT TIME STEP   9 IN FLOW TIME STEP  61 STRESS PERIOD   2
    12 TOTAL ITERATIONS
 
 SOLVING FOR HEAD 
 FLOW MODEL IS TRANSIENT
 FLOW MODEL CONTAINS CONSTANT-HEAD CELLS


 MAXIMUM STEPSIZE DURING WHICH ANY PARTICLE CANNOT MOVE MORE THAN ONE CELL
 = 0.1187    (WHEN MIN. R.F.=1)  AT K=   3, I=   2, J=  33

 MAXIMUM STEPSIZE WHICH MEETS STABILITY CRITERION OF THE ADVECTION TERM
 (FOR PURE FINITE-DIFFERENCE OPTION, MIXELM=0) 
 = 0.8139E-01(WHEN MIN. R.F.=1)  AT K=   3, I=   2, J=  32


 TOTAL NUMBER OF POINT SOURCES/SINKS PRESENT IN THE FLOW MODEL =   240

 MAXIMUM STEPSIZE WHICH MEETS STABILITY CRITERION OF THE SINK & SOURCE TERM
 = 0.1000E+31(WHEN MIN. R.F.=1)  AT K=   0, I=   0, J=   0

 MAXIMUM STEPSIZE WHICH MEETS STABILITY CRITERION OF THE DISPERSION TERM
 = 0.5606E-02(WHEN MIN. R.F.=1)  AT K=   3, I=   2, J=  32
     1 CALLS TO GCG PACKAGE FOR TRANSPORT TIME STEP  10 IN FLOW TIME STEP  61 STRESS PERIOD   2
    12 TOTAL ITERATIONS



 >>>>>>>>>>>>>>>>>>>>>>>>>>>>>>>>>>>>>>>>>>>>>>>>>>>>>>>FOR COMPONENT NO. 01<<<<<<<<<<<<<<<<<<<<<<<<<<<<<<<<<<<<<<<<<<<<<<<<<<<<<<<


                                            -------------------------------------------
                                                      TRANSPORT STEP NO.   10
                                            -------------------------------------------

 TOTAL ELAPSED TIME SINCE BEGINNING OF SIMULATION =   61.89062    D   
 .....................................................................

                     CUMULATIVE MASS BUDGETS AT END OF TRANSPORT STEP   10, TIME STEP   61, STRESS PERIOD    2
                     ------------------------------------------------------------------------------------------

                                                             IN                           OUT
                                                      ----------------             ----------------
                               CONSTANT CONCENTRATION:    9971.931                   -5363.326    
                                        CONSTANT HEAD:    0.000000                    0.000000    
                               MASS STOR (FLOW MODEL):   0.1278284E-01              -0.3361018E-02
                                MASS STORAGE (SOLUTE):    4.617675                   -4613.234    
                            ---------------------------------------------------------------------------
                                              [TOTAL]:    9976.561     KG            -9976.564     KG  

                                                          NET (IN - OUT):  -0.2963303E-02
                                                   DISCREPANCY (PERCENT):  -0.2970265E-04
 
 SOLVING FOR HEAD 
 FLOW MODEL IS TRANSIENT
 FLOW MODEL CONTAINS CONSTANT-HEAD CELLS


 MAXIMUM STEPSIZE DURING WHICH ANY PARTICLE CANNOT MOVE MORE THAN ONE CELL
 = 0.1187    (WHEN MIN. R.F.=1)  AT K=   3, I=   2, J=  33

 MAXIMUM STEPSIZE WHICH MEETS STABILITY CRITERION OF THE ADVECTION TERM
 (FOR PURE FINITE-DIFFERENCE OPTION, MIXELM=0) 
 = 0.8139E-01(WHEN MIN. R.F.=1)  AT K=   3, I=   2, J=  32


 TOTAL NUMBER OF POINT SOURCES/SINKS PRESENT IN THE FLOW MODEL =   240

 MAXIMUM STEPSIZE WHICH MEETS STABILITY CRITERION OF THE SINK & SOURCE TERM
 = 0.1000E+31(WHEN MIN. R.F.=1)  AT K=   0, I=   0, J=   0

 MAXIMUM STEPSIZE WHICH MEETS STABILITY CRITERION OF THE DISPERSION TERM
 = 0.5606E-02(WHEN MIN. R.F.=1)  AT K=   3, I=   2, J=  32
     1 CALLS TO GCG PACKAGE FOR TRANSPORT TIME STEP  11 IN FLOW TIME STEP  61 STRESS PERIOD   2
    12 TOTAL ITERATIONS
 
 SOLVING FOR HEAD 
 FLOW MODEL IS TRANSIENT
 FLOW MODEL CONTAINS CONSTANT-HEAD CELLS


 MAXIMUM STEPSIZE DURING WHICH ANY PARTICLE CANNOT MOVE MORE THAN ONE CELL
 = 0.1187    (WHEN MIN. R.F.=1)  AT K=   3, I=   2, J=  33

 MAXIMUM STEPSIZE WHICH MEETS STABILITY CRITERION OF THE ADVECTION TERM
 (FOR PURE FINITE-DIFFERENCE OPTION, MIXELM=0) 
 = 0.8138E-01(WHEN MIN. R.F.=1)  AT K=   3, I=   2, J=  32


 TOTAL NUMBER OF POINT SOURCES/SINKS PRESENT IN THE FLOW MODEL =   240

 MAXIMUM STEPSIZE WHICH MEETS STABILITY CRITERION OF THE SINK & SOURCE TERM
 = 0.1000E+31(WHEN MIN. R.F.=1)  AT K=   0, I=   0, J=   0

 MAXIMUM STEPSIZE WHICH MEETS STABILITY CRITERION OF THE DISPERSION TERM
 = 0.5606E-02(WHEN MIN. R.F.=1)  AT K=   3, I=   2, J=  32
     1 CALLS TO GCG PACKAGE FOR TRANSPORT TIME STEP  12 IN FLOW TIME STEP  61 STRESS PERIOD   2
     6 TOTAL ITERATIONS
  MAXIMUM CONCENTRATION CHANGES FOR EACH ITERATION:
  MAX. CHANGE LAYER,ROW,COL MAX. CHANGE LAYER,ROW,COL MAX. CHANGE LAYER,ROW,COL MAX. CHANGE LAYER,ROW,COL MAX. CHANGE LAYER,ROW,COL
 ------------------------------------------------------------------------------------------------------------------------------------
   0.1442E-03 ( 14,  2, 57)  0.1033E-04 (  6,  2, 60)  0.1518E-05 (  5,  2, 57)  0.3811E-06 (  7,  2, 60)  0.1729E-06 (  4,  2, 33)
   0.6794E-07 (  3,  2, 32)


                                          ================================================
                                                         FROM TIME =   62.000     TO    63.000    

 
 SOLVING FOR HEAD 
 FLOW MODEL IS TRANSIENT
 FLOW MODEL CONTAINS CONSTANT-HEAD CELLS


 MAXIMUM STEPSIZE DURING WHICH ANY PARTICLE CANNOT MOVE MORE THAN ONE CELL
 = 0.1187    (WHEN MIN. R.F.=1)  AT K=   3, I=   2, J=  33

 MAXIMUM STEPSIZE WHICH MEETS STABILITY CRITERION OF THE ADVECTION TERM
 (FOR PURE FINITE-DIFFERENCE OPTION, MIXELM=0) 
 = 0.8138E-01(WHEN MIN. R.F.=1)  AT K=   3, I=   2, J=  32


 TOTAL NUMBER OF POINT SOURCES/SINKS PRESENT IN THE FLOW MODEL =   240

 MAXIMUM STEPSIZE WHICH MEETS STABILITY CRITERION OF THE SINK & SOURCE TERM
 = 0.1000E+31(WHEN MIN. R.F.=1)  AT K=   0, I=   0, J=   0

 MAXIMUM STEPSIZE WHICH MEETS STABILITY CRITERION OF THE DISPERSION TERM
 = 0.5606E-02(WHEN MIN. R.F.=1)  AT K=   3, I=   2, J=  32


     1 CALLS TO GCG PACKAGE FOR TRANSPORT TIME STEP   1 IN FLOW TIME STEP  62 STRESS PERIOD   2
    12 TOTAL ITERATIONS

 NO OUTPUT CONTROL FOR STRESS PERIOD    2   TIME STEP  62
 
 SOLVING FOR HEAD 
 FLOW MODEL IS TRANSIENT
 FLOW MODEL CONTAINS CONSTANT-HEAD CELLS


 MAXIMUM STEPSIZE DURING WHICH ANY PARTICLE CANNOT MOVE MORE THAN ONE CELL
 = 0.1187    (WHEN MIN. R.F.=1)  AT K=   3, I=   2, J=  33

 MAXIMUM STEPSIZE WHICH MEETS STABILITY CRITERION OF THE ADVECTION TERM
 (FOR PURE FINITE-DIFFERENCE OPTION, MIXELM=0) 
 = 0.8138E-01(WHEN MIN. R.F.=1)  AT K=   3, I=   2, J=  32


 TOTAL NUMBER OF POINT SOURCES/SINKS PRESENT IN THE FLOW MODEL =   240

 MAXIMUM STEPSIZE WHICH MEETS STABILITY CRITERION OF THE SINK & SOURCE TERM
 = 0.1000E+31(WHEN MIN. R.F.=1)  AT K=   0, I=   0, J=   0

 MAXIMUM STEPSIZE WHICH MEETS STABILITY CRITERION OF THE DISPERSION TERM
 = 0.5606E-02(WHEN MIN. R.F.=1)  AT K=   3, I=   2, J=  32
     1 CALLS TO GCG PACKAGE FOR TRANSPORT TIME STEP   2 IN FLOW TIME STEP  62 STRESS PERIOD   2
    12 TOTAL ITERATIONS
 
 SOLVING FOR HEAD 
 FLOW MODEL IS TRANSIENT
 FLOW MODEL CONTAINS CONSTANT-HEAD CELLS


 MAXIMUM STEPSIZE DURING WHICH ANY PARTICLE CANNOT MOVE MORE THAN ONE CELL
 = 0.1187    (WHEN MIN. R.F.=1)  AT K=   3, I=   2, J=  33

 MAXIMUM STEPSIZE WHICH MEETS STABILITY CRITERION OF THE ADVECTION TERM
 (FOR PURE FINITE-DIFFERENCE OPTION, MIXELM=0) 
 = 0.8138E-01(WHEN MIN. R.F.=1)  AT K=   3, I=   2, J=  32


 TOTAL NUMBER OF POINT SOURCES/SINKS PRESENT IN THE FLOW MODEL =   240

 MAXIMUM STEPSIZE WHICH MEETS STABILITY CRITERION OF THE SINK & SOURCE TERM
 = 0.1000E+31(WHEN MIN. R.F.=1)  AT K=   0, I=   0, J=   0

 MAXIMUM STEPSIZE WHICH MEETS STABILITY CRITERION OF THE DISPERSION TERM
 = 0.5606E-02(WHEN MIN. R.F.=1)  AT K=   3, I=   2, J=  32
     1 CALLS TO GCG PACKAGE FOR TRANSPORT TIME STEP   3 IN FLOW TIME STEP  62 STRESS PERIOD   2
    12 TOTAL ITERATIONS
 
 SOLVING FOR HEAD 
 FLOW MODEL IS TRANSIENT
 FLOW MODEL CONTAINS CONSTANT-HEAD CELLS


 MAXIMUM STEPSIZE DURING WHICH ANY PARTICLE CANNOT MOVE MORE THAN ONE CELL
 = 0.1187    (WHEN MIN. R.F.=1)  AT K=   3, I=   2, J=  33

 MAXIMUM STEPSIZE WHICH MEETS STABILITY CRITERION OF THE ADVECTION TERM
 (FOR PURE FINITE-DIFFERENCE OPTION, MIXELM=0) 
 = 0.8138E-01(WHEN MIN. R.F.=1)  AT K=   3, I=   2, J=  32


 TOTAL NUMBER OF POINT SOURCES/SINKS PRESENT IN THE FLOW MODEL =   240

 MAXIMUM STEPSIZE WHICH MEETS STABILITY CRITERION OF THE SINK & SOURCE TERM
 = 0.1000E+31(WHEN MIN. R.F.=1)  AT K=   0, I=   0, J=   0

 MAXIMUM STEPSIZE WHICH MEETS STABILITY CRITERION OF THE DISPERSION TERM
 = 0.5606E-02(WHEN MIN. R.F.=1)  AT K=   3, I=   2, J=  32
     1 CALLS TO GCG PACKAGE FOR TRANSPORT TIME STEP   4 IN FLOW TIME STEP  62 STRESS PERIOD   2
    12 TOTAL ITERATIONS
 
 SOLVING FOR HEAD 
 FLOW MODEL IS TRANSIENT
 FLOW MODEL CONTAINS CONSTANT-HEAD CELLS


 MAXIMUM STEPSIZE DURING WHICH ANY PARTICLE CANNOT MOVE MORE THAN ONE CELL
 = 0.1187    (WHEN MIN. R.F.=1)  AT K=   3, I=   2, J=  33

 MAXIMUM STEPSIZE WHICH MEETS STABILITY CRITERION OF THE ADVECTION TERM
 (FOR PURE FINITE-DIFFERENCE OPTION, MIXELM=0) 
 = 0.8138E-01(WHEN MIN. R.F.=1)  AT K=   3, I=   2, J=  32


 TOTAL NUMBER OF POINT SOURCES/SINKS PRESENT IN THE FLOW MODEL =   240

 MAXIMUM STEPSIZE WHICH MEETS STABILITY CRITERION OF THE SINK & SOURCE TERM
 = 0.1000E+31(WHEN MIN. R.F.=1)  AT K=   0, I=   0, J=   0

 MAXIMUM STEPSIZE WHICH MEETS STABILITY CRITERION OF THE DISPERSION TERM
 = 0.5606E-02(WHEN MIN. R.F.=1)  AT K=   3, I=   2, J=  32
     1 CALLS TO GCG PACKAGE FOR TRANSPORT TIME STEP   5 IN FLOW TIME STEP  62 STRESS PERIOD   2
    12 TOTAL ITERATIONS
 
 SOLVING FOR HEAD 
 FLOW MODEL IS TRANSIENT
 FLOW MODEL CONTAINS CONSTANT-HEAD CELLS


 MAXIMUM STEPSIZE DURING WHICH ANY PARTICLE CANNOT MOVE MORE THAN ONE CELL
 = 0.1187    (WHEN MIN. R.F.=1)  AT K=   3, I=   2, J=  33

 MAXIMUM STEPSIZE WHICH MEETS STABILITY CRITERION OF THE ADVECTION TERM
 (FOR PURE FINITE-DIFFERENCE OPTION, MIXELM=0) 
 = 0.8138E-01(WHEN MIN. R.F.=1)  AT K=   3, I=   2, J=  32


 TOTAL NUMBER OF POINT SOURCES/SINKS PRESENT IN THE FLOW MODEL =   240

 MAXIMUM STEPSIZE WHICH MEETS STABILITY CRITERION OF THE SINK & SOURCE TERM
 = 0.1000E+31(WHEN MIN. R.F.=1)  AT K=   0, I=   0, J=   0

 MAXIMUM STEPSIZE WHICH MEETS STABILITY CRITERION OF THE DISPERSION TERM
 = 0.5606E-02(WHEN MIN. R.F.=1)  AT K=   3, I=   2, J=  32
     1 CALLS TO GCG PACKAGE FOR TRANSPORT TIME STEP   6 IN FLOW TIME STEP  62 STRESS PERIOD   2
    12 TOTAL ITERATIONS
 
 SOLVING FOR HEAD 
 FLOW MODEL IS TRANSIENT
 FLOW MODEL CONTAINS CONSTANT-HEAD CELLS


 MAXIMUM STEPSIZE DURING WHICH ANY PARTICLE CANNOT MOVE MORE THAN ONE CELL
 = 0.1187    (WHEN MIN. R.F.=1)  AT K=   3, I=   2, J=  33

 MAXIMUM STEPSIZE WHICH MEETS STABILITY CRITERION OF THE ADVECTION TERM
 (FOR PURE FINITE-DIFFERENCE OPTION, MIXELM=0) 
 = 0.8138E-01(WHEN MIN. R.F.=1)  AT K=   3, I=   2, J=  32


 TOTAL NUMBER OF POINT SOURCES/SINKS PRESENT IN THE FLOW MODEL =   240

 MAXIMUM STEPSIZE WHICH MEETS STABILITY CRITERION OF THE SINK & SOURCE TERM
 = 0.1000E+31(WHEN MIN. R.F.=1)  AT K=   0, I=   0, J=   0

 MAXIMUM STEPSIZE WHICH MEETS STABILITY CRITERION OF THE DISPERSION TERM
 = 0.5606E-02(WHEN MIN. R.F.=1)  AT K=   3, I=   2, J=  32
     1 CALLS TO GCG PACKAGE FOR TRANSPORT TIME STEP   7 IN FLOW TIME STEP  62 STRESS PERIOD   2
    12 TOTAL ITERATIONS
 
 SOLVING FOR HEAD 
 FLOW MODEL IS TRANSIENT
 FLOW MODEL CONTAINS CONSTANT-HEAD CELLS


 MAXIMUM STEPSIZE DURING WHICH ANY PARTICLE CANNOT MOVE MORE THAN ONE CELL
 = 0.1187    (WHEN MIN. R.F.=1)  AT K=   3, I=   2, J=  33

 MAXIMUM STEPSIZE WHICH MEETS STABILITY CRITERION OF THE ADVECTION TERM
 (FOR PURE FINITE-DIFFERENCE OPTION, MIXELM=0) 
 = 0.8138E-01(WHEN MIN. R.F.=1)  AT K=   3, I=   2, J=  32


 TOTAL NUMBER OF POINT SOURCES/SINKS PRESENT IN THE FLOW MODEL =   240

 MAXIMUM STEPSIZE WHICH MEETS STABILITY CRITERION OF THE SINK & SOURCE TERM
 = 0.1000E+31(WHEN MIN. R.F.=1)  AT K=   0, I=   0, J=   0

 MAXIMUM STEPSIZE WHICH MEETS STABILITY CRITERION OF THE DISPERSION TERM
 = 0.5606E-02(WHEN MIN. R.F.=1)  AT K=   3, I=   2, J=  32
     1 CALLS TO GCG PACKAGE FOR TRANSPORT TIME STEP   8 IN FLOW TIME STEP  62 STRESS PERIOD   2
    12 TOTAL ITERATIONS
 
 SOLVING FOR HEAD 
 FLOW MODEL IS TRANSIENT
 FLOW MODEL CONTAINS CONSTANT-HEAD CELLS


 MAXIMUM STEPSIZE DURING WHICH ANY PARTICLE CANNOT MOVE MORE THAN ONE CELL
 = 0.1187    (WHEN MIN. R.F.=1)  AT K=   3, I=   2, J=  33

 MAXIMUM STEPSIZE WHICH MEETS STABILITY CRITERION OF THE ADVECTION TERM
 (FOR PURE FINITE-DIFFERENCE OPTION, MIXELM=0) 
 = 0.8138E-01(WHEN MIN. R.F.=1)  AT K=   3, I=   2, J=  32


 TOTAL NUMBER OF POINT SOURCES/SINKS PRESENT IN THE FLOW MODEL =   240

 MAXIMUM STEPSIZE WHICH MEETS STABILITY CRITERION OF THE SINK & SOURCE TERM
 = 0.1000E+31(WHEN MIN. R.F.=1)  AT K=   0, I=   0, J=   0

 MAXIMUM STEPSIZE WHICH MEETS STABILITY CRITERION OF THE DISPERSION TERM
 = 0.5606E-02(WHEN MIN. R.F.=1)  AT K=   3, I=   2, J=  32
     1 CALLS TO GCG PACKAGE FOR TRANSPORT TIME STEP   9 IN FLOW TIME STEP  62 STRESS PERIOD   2
    12 TOTAL ITERATIONS
 
 SOLVING FOR HEAD 
 FLOW MODEL IS TRANSIENT
 FLOW MODEL CONTAINS CONSTANT-HEAD CELLS


 MAXIMUM STEPSIZE DURING WHICH ANY PARTICLE CANNOT MOVE MORE THAN ONE CELL
 = 0.1187    (WHEN MIN. R.F.=1)  AT K=   3, I=   2, J=  33

 MAXIMUM STEPSIZE WHICH MEETS STABILITY CRITERION OF THE ADVECTION TERM
 (FOR PURE FINITE-DIFFERENCE OPTION, MIXELM=0) 
 = 0.8138E-01(WHEN MIN. R.F.=1)  AT K=   3, I=   2, J=  32


 TOTAL NUMBER OF POINT SOURCES/SINKS PRESENT IN THE FLOW MODEL =   240

 MAXIMUM STEPSIZE WHICH MEETS STABILITY CRITERION OF THE SINK & SOURCE TERM
 = 0.1000E+31(WHEN MIN. R.F.=1)  AT K=   0, I=   0, J=   0

 MAXIMUM STEPSIZE WHICH MEETS STABILITY CRITERION OF THE DISPERSION TERM
 = 0.5606E-02(WHEN MIN. R.F.=1)  AT K=   3, I=   2, J=  32
     1 CALLS TO GCG PACKAGE FOR TRANSPORT TIME STEP  10 IN FLOW TIME STEP  62 STRESS PERIOD   2
    12 TOTAL ITERATIONS



 >>>>>>>>>>>>>>>>>>>>>>>>>>>>>>>>>>>>>>>>>>>>>>>>>>>>>>>FOR COMPONENT NO. 01<<<<<<<<<<<<<<<<<<<<<<<<<<<<<<<<<<<<<<<<<<<<<<<<<<<<<<<


                                            -------------------------------------------
                                                      TRANSPORT STEP NO.   10
                                            -------------------------------------------

 TOTAL ELAPSED TIME SINCE BEGINNING OF SIMULATION =   62.89060    D   
 .....................................................................

                     CUMULATIVE MASS BUDGETS AT END OF TRANSPORT STEP   10, TIME STEP   62, STRESS PERIOD    2
                     ------------------------------------------------------------------------------------------

                                                             IN                           OUT
                                                      ----------------             ----------------
                               CONSTANT CONCENTRATION:    10080.82                   -5455.961    
                                        CONSTANT HEAD:    0.000000                    0.000000    
                               MASS STOR (FLOW MODEL):   0.1279963E-01              -0.3365225E-02
                                MASS STORAGE (SOLUTE):    4.993326                   -4629.865    
                            ---------------------------------------------------------------------------
                                              [TOTAL]:    10085.83     KG            -10085.83     KG  

                                                          NET (IN - OUT):  -0.2978270E-02
                                                   DISCREPANCY (PERCENT):  -0.2952925E-04
 
 SOLVING FOR HEAD 
 FLOW MODEL IS TRANSIENT
 FLOW MODEL CONTAINS CONSTANT-HEAD CELLS


 MAXIMUM STEPSIZE DURING WHICH ANY PARTICLE CANNOT MOVE MORE THAN ONE CELL
 = 0.1187    (WHEN MIN. R.F.=1)  AT K=   3, I=   2, J=  33

 MAXIMUM STEPSIZE WHICH MEETS STABILITY CRITERION OF THE ADVECTION TERM
 (FOR PURE FINITE-DIFFERENCE OPTION, MIXELM=0) 
 = 0.8138E-01(WHEN MIN. R.F.=1)  AT K=   3, I=   2, J=  32


 TOTAL NUMBER OF POINT SOURCES/SINKS PRESENT IN THE FLOW MODEL =   240

 MAXIMUM STEPSIZE WHICH MEETS STABILITY CRITERION OF THE SINK & SOURCE TERM
 = 0.1000E+31(WHEN MIN. R.F.=1)  AT K=   0, I=   0, J=   0

 MAXIMUM STEPSIZE WHICH MEETS STABILITY CRITERION OF THE DISPERSION TERM
 = 0.5606E-02(WHEN MIN. R.F.=1)  AT K=   3, I=   2, J=  32
     1 CALLS TO GCG PACKAGE FOR TRANSPORT TIME STEP  11 IN FLOW TIME STEP  62 STRESS PERIOD   2
    12 TOTAL ITERATIONS
 
 SOLVING FOR HEAD 
 FLOW MODEL IS TRANSIENT
 FLOW MODEL CONTAINS CONSTANT-HEAD CELLS


 MAXIMUM STEPSIZE DURING WHICH ANY PARTICLE CANNOT MOVE MORE THAN ONE CELL
 = 0.1187    (WHEN MIN. R.F.=1)  AT K=   3, I=   2, J=  33

 MAXIMUM STEPSIZE WHICH MEETS STABILITY CRITERION OF THE ADVECTION TERM
 (FOR PURE FINITE-DIFFERENCE OPTION, MIXELM=0) 
 = 0.8138E-01(WHEN MIN. R.F.=1)  AT K=   3, I=   2, J=  32


 TOTAL NUMBER OF POINT SOURCES/SINKS PRESENT IN THE FLOW MODEL =   240

 MAXIMUM STEPSIZE WHICH MEETS STABILITY CRITERION OF THE SINK & SOURCE TERM
 = 0.1000E+31(WHEN MIN. R.F.=1)  AT K=   0, I=   0, J=   0

 MAXIMUM STEPSIZE WHICH MEETS STABILITY CRITERION OF THE DISPERSION TERM
 = 0.5606E-02(WHEN MIN. R.F.=1)  AT K=   3, I=   2, J=  32
     1 CALLS TO GCG PACKAGE FOR TRANSPORT TIME STEP  12 IN FLOW TIME STEP  62 STRESS PERIOD   2
     6 TOTAL ITERATIONS
  MAXIMUM CONCENTRATION CHANGES FOR EACH ITERATION:
  MAX. CHANGE LAYER,ROW,COL MAX. CHANGE LAYER,ROW,COL MAX. CHANGE LAYER,ROW,COL MAX. CHANGE LAYER,ROW,COL MAX. CHANGE LAYER,ROW,COL
 ------------------------------------------------------------------------------------------------------------------------------------
   0.1421E-03 ( 14,  2, 57)  0.9986E-05 (  6,  2, 60)  0.1469E-05 (  5,  2, 57)  0.3671E-06 (  7,  2, 60)  0.1664E-06 (  4,  2, 33)
   0.6552E-07 (  3,  2, 32)


                                          ================================================
                                                         FROM TIME =   63.000     TO    64.000    

 
 SOLVING FOR HEAD 
 FLOW MODEL IS TRANSIENT
 FLOW MODEL CONTAINS CONSTANT-HEAD CELLS


 MAXIMUM STEPSIZE DURING WHICH ANY PARTICLE CANNOT MOVE MORE THAN ONE CELL
 = 0.1187    (WHEN MIN. R.F.=1)  AT K=   3, I=   2, J=  33

 MAXIMUM STEPSIZE WHICH MEETS STABILITY CRITERION OF THE ADVECTION TERM
 (FOR PURE FINITE-DIFFERENCE OPTION, MIXELM=0) 
 = 0.8138E-01(WHEN MIN. R.F.=1)  AT K=   3, I=   2, J=  32


 TOTAL NUMBER OF POINT SOURCES/SINKS PRESENT IN THE FLOW MODEL =   240

 MAXIMUM STEPSIZE WHICH MEETS STABILITY CRITERION OF THE SINK & SOURCE TERM
 = 0.1000E+31(WHEN MIN. R.F.=1)  AT K=   0, I=   0, J=   0

 MAXIMUM STEPSIZE WHICH MEETS STABILITY CRITERION OF THE DISPERSION TERM
 = 0.5606E-02(WHEN MIN. R.F.=1)  AT K=   3, I=   2, J=  32


     1 CALLS TO GCG PACKAGE FOR TRANSPORT TIME STEP   1 IN FLOW TIME STEP  63 STRESS PERIOD   2
    12 TOTAL ITERATIONS

 NO OUTPUT CONTROL FOR STRESS PERIOD    2   TIME STEP  63
 
 SOLVING FOR HEAD 
 FLOW MODEL IS TRANSIENT
 FLOW MODEL CONTAINS CONSTANT-HEAD CELLS


 MAXIMUM STEPSIZE DURING WHICH ANY PARTICLE CANNOT MOVE MORE THAN ONE CELL
 = 0.1187    (WHEN MIN. R.F.=1)  AT K=   3, I=   2, J=  33

 MAXIMUM STEPSIZE WHICH MEETS STABILITY CRITERION OF THE ADVECTION TERM
 (FOR PURE FINITE-DIFFERENCE OPTION, MIXELM=0) 
 = 0.8138E-01(WHEN MIN. R.F.=1)  AT K=   3, I=   2, J=  32


 TOTAL NUMBER OF POINT SOURCES/SINKS PRESENT IN THE FLOW MODEL =   240

 MAXIMUM STEPSIZE WHICH MEETS STABILITY CRITERION OF THE SINK & SOURCE TERM
 = 0.1000E+31(WHEN MIN. R.F.=1)  AT K=   0, I=   0, J=   0

 MAXIMUM STEPSIZE WHICH MEETS STABILITY CRITERION OF THE DISPERSION TERM
 = 0.5606E-02(WHEN MIN. R.F.=1)  AT K=   3, I=   2, J=  32
     1 CALLS TO GCG PACKAGE FOR TRANSPORT TIME STEP   2 IN FLOW TIME STEP  63 STRESS PERIOD   2
    12 TOTAL ITERATIONS
 
 SOLVING FOR HEAD 
 FLOW MODEL IS TRANSIENT
 FLOW MODEL CONTAINS CONSTANT-HEAD CELLS


 MAXIMUM STEPSIZE DURING WHICH ANY PARTICLE CANNOT MOVE MORE THAN ONE CELL
 = 0.1187    (WHEN MIN. R.F.=1)  AT K=   3, I=   2, J=  33

 MAXIMUM STEPSIZE WHICH MEETS STABILITY CRITERION OF THE ADVECTION TERM
 (FOR PURE FINITE-DIFFERENCE OPTION, MIXELM=0) 
 = 0.8138E-01(WHEN MIN. R.F.=1)  AT K=   3, I=   2, J=  32


 TOTAL NUMBER OF POINT SOURCES/SINKS PRESENT IN THE FLOW MODEL =   240

 MAXIMUM STEPSIZE WHICH MEETS STABILITY CRITERION OF THE SINK & SOURCE TERM
 = 0.1000E+31(WHEN MIN. R.F.=1)  AT K=   0, I=   0, J=   0

 MAXIMUM STEPSIZE WHICH MEETS STABILITY CRITERION OF THE DISPERSION TERM
 = 0.5606E-02(WHEN MIN. R.F.=1)  AT K=   3, I=   2, J=  32
     1 CALLS TO GCG PACKAGE FOR TRANSPORT TIME STEP   3 IN FLOW TIME STEP  63 STRESS PERIOD   2
    12 TOTAL ITERATIONS
 
 SOLVING FOR HEAD 
 FLOW MODEL IS TRANSIENT
 FLOW MODEL CONTAINS CONSTANT-HEAD CELLS


 MAXIMUM STEPSIZE DURING WHICH ANY PARTICLE CANNOT MOVE MORE THAN ONE CELL
 = 0.1187    (WHEN MIN. R.F.=1)  AT K=   3, I=   2, J=  33

 MAXIMUM STEPSIZE WHICH MEETS STABILITY CRITERION OF THE ADVECTION TERM
 (FOR PURE FINITE-DIFFERENCE OPTION, MIXELM=0) 
 = 0.8138E-01(WHEN MIN. R.F.=1)  AT K=   3, I=   2, J=  32


 TOTAL NUMBER OF POINT SOURCES/SINKS PRESENT IN THE FLOW MODEL =   240

 MAXIMUM STEPSIZE WHICH MEETS STABILITY CRITERION OF THE SINK & SOURCE TERM
 = 0.1000E+31(WHEN MIN. R.F.=1)  AT K=   0, I=   0, J=   0

 MAXIMUM STEPSIZE WHICH MEETS STABILITY CRITERION OF THE DISPERSION TERM
 = 0.5606E-02(WHEN MIN. R.F.=1)  AT K=   3, I=   2, J=  32
     1 CALLS TO GCG PACKAGE FOR TRANSPORT TIME STEP   4 IN FLOW TIME STEP  63 STRESS PERIOD   2
    12 TOTAL ITERATIONS
 
 SOLVING FOR HEAD 
 FLOW MODEL IS TRANSIENT
 FLOW MODEL CONTAINS CONSTANT-HEAD CELLS


 MAXIMUM STEPSIZE DURING WHICH ANY PARTICLE CANNOT MOVE MORE THAN ONE CELL
 = 0.1187    (WHEN MIN. R.F.=1)  AT K=   3, I=   2, J=  33

 MAXIMUM STEPSIZE WHICH MEETS STABILITY CRITERION OF THE ADVECTION TERM
 (FOR PURE FINITE-DIFFERENCE OPTION, MIXELM=0) 
 = 0.8138E-01(WHEN MIN. R.F.=1)  AT K=   3, I=   2, J=  32


 TOTAL NUMBER OF POINT SOURCES/SINKS PRESENT IN THE FLOW MODEL =   240

 MAXIMUM STEPSIZE WHICH MEETS STABILITY CRITERION OF THE SINK & SOURCE TERM
 = 0.1000E+31(WHEN MIN. R.F.=1)  AT K=   0, I=   0, J=   0

 MAXIMUM STEPSIZE WHICH MEETS STABILITY CRITERION OF THE DISPERSION TERM
 = 0.5606E-02(WHEN MIN. R.F.=1)  AT K=   3, I=   2, J=  32
     1 CALLS TO GCG PACKAGE FOR TRANSPORT TIME STEP   5 IN FLOW TIME STEP  63 STRESS PERIOD   2
    12 TOTAL ITERATIONS
 
 SOLVING FOR HEAD 
 FLOW MODEL IS TRANSIENT
 FLOW MODEL CONTAINS CONSTANT-HEAD CELLS


 MAXIMUM STEPSIZE DURING WHICH ANY PARTICLE CANNOT MOVE MORE THAN ONE CELL
 = 0.1187    (WHEN MIN. R.F.=1)  AT K=   3, I=   2, J=  33

 MAXIMUM STEPSIZE WHICH MEETS STABILITY CRITERION OF THE ADVECTION TERM
 (FOR PURE FINITE-DIFFERENCE OPTION, MIXELM=0) 
 = 0.8138E-01(WHEN MIN. R.F.=1)  AT K=   3, I=   2, J=  32


 TOTAL NUMBER OF POINT SOURCES/SINKS PRESENT IN THE FLOW MODEL =   240

 MAXIMUM STEPSIZE WHICH MEETS STABILITY CRITERION OF THE SINK & SOURCE TERM
 = 0.1000E+31(WHEN MIN. R.F.=1)  AT K=   0, I=   0, J=   0

 MAXIMUM STEPSIZE WHICH MEETS STABILITY CRITERION OF THE DISPERSION TERM
 = 0.5606E-02(WHEN MIN. R.F.=1)  AT K=   3, I=   2, J=  32
     1 CALLS TO GCG PACKAGE FOR TRANSPORT TIME STEP   6 IN FLOW TIME STEP  63 STRESS PERIOD   2
    12 TOTAL ITERATIONS
 
 SOLVING FOR HEAD 
 FLOW MODEL IS TRANSIENT
 FLOW MODEL CONTAINS CONSTANT-HEAD CELLS


 MAXIMUM STEPSIZE DURING WHICH ANY PARTICLE CANNOT MOVE MORE THAN ONE CELL
 = 0.1187    (WHEN MIN. R.F.=1)  AT K=   3, I=   2, J=  33

 MAXIMUM STEPSIZE WHICH MEETS STABILITY CRITERION OF THE ADVECTION TERM
 (FOR PURE FINITE-DIFFERENCE OPTION, MIXELM=0) 
 = 0.8138E-01(WHEN MIN. R.F.=1)  AT K=   3, I=   2, J=  32


 TOTAL NUMBER OF POINT SOURCES/SINKS PRESENT IN THE FLOW MODEL =   240

 MAXIMUM STEPSIZE WHICH MEETS STABILITY CRITERION OF THE SINK & SOURCE TERM
 = 0.1000E+31(WHEN MIN. R.F.=1)  AT K=   0, I=   0, J=   0

 MAXIMUM STEPSIZE WHICH MEETS STABILITY CRITERION OF THE DISPERSION TERM
 = 0.5606E-02(WHEN MIN. R.F.=1)  AT K=   3, I=   2, J=  32
     1 CALLS TO GCG PACKAGE FOR TRANSPORT TIME STEP   7 IN FLOW TIME STEP  63 STRESS PERIOD   2
    12 TOTAL ITERATIONS
 
 SOLVING FOR HEAD 
 FLOW MODEL IS TRANSIENT
 FLOW MODEL CONTAINS CONSTANT-HEAD CELLS


 MAXIMUM STEPSIZE DURING WHICH ANY PARTICLE CANNOT MOVE MORE THAN ONE CELL
 = 0.1187    (WHEN MIN. R.F.=1)  AT K=   3, I=   2, J=  33

 MAXIMUM STEPSIZE WHICH MEETS STABILITY CRITERION OF THE ADVECTION TERM
 (FOR PURE FINITE-DIFFERENCE OPTION, MIXELM=0) 
 = 0.8138E-01(WHEN MIN. R.F.=1)  AT K=   3, I=   2, J=  32


 TOTAL NUMBER OF POINT SOURCES/SINKS PRESENT IN THE FLOW MODEL =   240

 MAXIMUM STEPSIZE WHICH MEETS STABILITY CRITERION OF THE SINK & SOURCE TERM
 = 0.1000E+31(WHEN MIN. R.F.=1)  AT K=   0, I=   0, J=   0

 MAXIMUM STEPSIZE WHICH MEETS STABILITY CRITERION OF THE DISPERSION TERM
 = 0.5606E-02(WHEN MIN. R.F.=1)  AT K=   3, I=   2, J=  32
     1 CALLS TO GCG PACKAGE FOR TRANSPORT TIME STEP   8 IN FLOW TIME STEP  63 STRESS PERIOD   2
    12 TOTAL ITERATIONS
 
 SOLVING FOR HEAD 
 FLOW MODEL IS TRANSIENT
 FLOW MODEL CONTAINS CONSTANT-HEAD CELLS


 MAXIMUM STEPSIZE DURING WHICH ANY PARTICLE CANNOT MOVE MORE THAN ONE CELL
 = 0.1187    (WHEN MIN. R.F.=1)  AT K=   3, I=   2, J=  33

 MAXIMUM STEPSIZE WHICH MEETS STABILITY CRITERION OF THE ADVECTION TERM
 (FOR PURE FINITE-DIFFERENCE OPTION, MIXELM=0) 
 = 0.8138E-01(WHEN MIN. R.F.=1)  AT K=   3, I=   2, J=  32


 TOTAL NUMBER OF POINT SOURCES/SINKS PRESENT IN THE FLOW MODEL =   240

 MAXIMUM STEPSIZE WHICH MEETS STABILITY CRITERION OF THE SINK & SOURCE TERM
 = 0.1000E+31(WHEN MIN. R.F.=1)  AT K=   0, I=   0, J=   0

 MAXIMUM STEPSIZE WHICH MEETS STABILITY CRITERION OF THE DISPERSION TERM
 = 0.5606E-02(WHEN MIN. R.F.=1)  AT K=   3, I=   2, J=  32
     1 CALLS TO GCG PACKAGE FOR TRANSPORT TIME STEP   9 IN FLOW TIME STEP  63 STRESS PERIOD   2
    12 TOTAL ITERATIONS
 
 SOLVING FOR HEAD 
 FLOW MODEL IS TRANSIENT
 FLOW MODEL CONTAINS CONSTANT-HEAD CELLS


 MAXIMUM STEPSIZE DURING WHICH ANY PARTICLE CANNOT MOVE MORE THAN ONE CELL
 = 0.1187    (WHEN MIN. R.F.=1)  AT K=   3, I=   2, J=  33

 MAXIMUM STEPSIZE WHICH MEETS STABILITY CRITERION OF THE ADVECTION TERM
 (FOR PURE FINITE-DIFFERENCE OPTION, MIXELM=0) 
 = 0.8138E-01(WHEN MIN. R.F.=1)  AT K=   3, I=   2, J=  32


 TOTAL NUMBER OF POINT SOURCES/SINKS PRESENT IN THE FLOW MODEL =   240

 MAXIMUM STEPSIZE WHICH MEETS STABILITY CRITERION OF THE SINK & SOURCE TERM
 = 0.1000E+31(WHEN MIN. R.F.=1)  AT K=   0, I=   0, J=   0

 MAXIMUM STEPSIZE WHICH MEETS STABILITY CRITERION OF THE DISPERSION TERM
 = 0.5606E-02(WHEN MIN. R.F.=1)  AT K=   3, I=   2, J=  32
     1 CALLS TO GCG PACKAGE FOR TRANSPORT TIME STEP  10 IN FLOW TIME STEP  63 STRESS PERIOD   2
    12 TOTAL ITERATIONS



 >>>>>>>>>>>>>>>>>>>>>>>>>>>>>>>>>>>>>>>>>>>>>>>>>>>>>>>FOR COMPONENT NO. 01<<<<<<<<<<<<<<<<<<<<<<<<<<<<<<<<<<<<<<<<<<<<<<<<<<<<<<<


                                            -------------------------------------------
                                                      TRANSPORT STEP NO.   10
                                            -------------------------------------------

 TOTAL ELAPSED TIME SINCE BEGINNING OF SIMULATION =   63.89058    D   
 .....................................................................

                     CUMULATIVE MASS BUDGETS AT END OF TRANSPORT STEP   10, TIME STEP   63, STRESS PERIOD    2
                     ------------------------------------------------------------------------------------------

                                                             IN                           OUT
                                                      ----------------             ----------------
                               CONSTANT CONCENTRATION:    10189.43                   -5548.618    
                                        CONSTANT HEAD:    0.000000                    0.000000    
                               MASS STOR (FLOW MODEL):   0.1281625E-01              -0.3369327E-02
                                MASS STORAGE (SOLUTE):    5.374207                   -4646.199    
                            ---------------------------------------------------------------------------
                                              [TOTAL]:    10194.82     KG            -10194.82     KG  

                                                          NET (IN - OUT):  -0.2993234E-02
                                                   DISCREPANCY (PERCENT):  -0.2936034E-04
 
 SOLVING FOR HEAD 
 FLOW MODEL IS TRANSIENT
 FLOW MODEL CONTAINS CONSTANT-HEAD CELLS


 MAXIMUM STEPSIZE DURING WHICH ANY PARTICLE CANNOT MOVE MORE THAN ONE CELL
 = 0.1187    (WHEN MIN. R.F.=1)  AT K=   3, I=   2, J=  33

 MAXIMUM STEPSIZE WHICH MEETS STABILITY CRITERION OF THE ADVECTION TERM
 (FOR PURE FINITE-DIFFERENCE OPTION, MIXELM=0) 
 = 0.8138E-01(WHEN MIN. R.F.=1)  AT K=   3, I=   2, J=  32


 TOTAL NUMBER OF POINT SOURCES/SINKS PRESENT IN THE FLOW MODEL =   240

 MAXIMUM STEPSIZE WHICH MEETS STABILITY CRITERION OF THE SINK & SOURCE TERM
 = 0.1000E+31(WHEN MIN. R.F.=1)  AT K=   0, I=   0, J=   0

 MAXIMUM STEPSIZE WHICH MEETS STABILITY CRITERION OF THE DISPERSION TERM
 = 0.5606E-02(WHEN MIN. R.F.=1)  AT K=   3, I=   2, J=  32
     1 CALLS TO GCG PACKAGE FOR TRANSPORT TIME STEP  11 IN FLOW TIME STEP  63 STRESS PERIOD   2
    12 TOTAL ITERATIONS
 
 SOLVING FOR HEAD 
 FLOW MODEL IS TRANSIENT
 FLOW MODEL CONTAINS CONSTANT-HEAD CELLS


 MAXIMUM STEPSIZE DURING WHICH ANY PARTICLE CANNOT MOVE MORE THAN ONE CELL
 = 0.1187    (WHEN MIN. R.F.=1)  AT K=   3, I=   2, J=  33

 MAXIMUM STEPSIZE WHICH MEETS STABILITY CRITERION OF THE ADVECTION TERM
 (FOR PURE FINITE-DIFFERENCE OPTION, MIXELM=0) 
 = 0.8138E-01(WHEN MIN. R.F.=1)  AT K=   3, I=   2, J=  32


 TOTAL NUMBER OF POINT SOURCES/SINKS PRESENT IN THE FLOW MODEL =   240

 MAXIMUM STEPSIZE WHICH MEETS STABILITY CRITERION OF THE SINK & SOURCE TERM
 = 0.1000E+31(WHEN MIN. R.F.=1)  AT K=   0, I=   0, J=   0

 MAXIMUM STEPSIZE WHICH MEETS STABILITY CRITERION OF THE DISPERSION TERM
 = 0.5606E-02(WHEN MIN. R.F.=1)  AT K=   3, I=   2, J=  32
     1 CALLS TO GCG PACKAGE FOR TRANSPORT TIME STEP  12 IN FLOW TIME STEP  63 STRESS PERIOD   2
     6 TOTAL ITERATIONS
  MAXIMUM CONCENTRATION CHANGES FOR EACH ITERATION:
  MAX. CHANGE LAYER,ROW,COL MAX. CHANGE LAYER,ROW,COL MAX. CHANGE LAYER,ROW,COL MAX. CHANGE LAYER,ROW,COL MAX. CHANGE LAYER,ROW,COL
 ------------------------------------------------------------------------------------------------------------------------------------
   0.1399E-03 ( 14,  2, 57)  0.9660E-05 (  6,  2, 60)  0.1422E-05 (  5,  2, 57)  0.3539E-06 (  7,  2, 60)  0.1603E-06 (  4,  2, 33)
   0.6324E-07 (  3,  2, 32)


                                          ================================================
                                                         FROM TIME =   64.000     TO    65.000    

 
 SOLVING FOR HEAD 
 FLOW MODEL IS TRANSIENT
 FLOW MODEL CONTAINS CONSTANT-HEAD CELLS


 MAXIMUM STEPSIZE DURING WHICH ANY PARTICLE CANNOT MOVE MORE THAN ONE CELL
 = 0.1187    (WHEN MIN. R.F.=1)  AT K=   3, I=   2, J=  33

 MAXIMUM STEPSIZE WHICH MEETS STABILITY CRITERION OF THE ADVECTION TERM
 (FOR PURE FINITE-DIFFERENCE OPTION, MIXELM=0) 
 = 0.8138E-01(WHEN MIN. R.F.=1)  AT K=   3, I=   2, J=  32


 TOTAL NUMBER OF POINT SOURCES/SINKS PRESENT IN THE FLOW MODEL =   240

 MAXIMUM STEPSIZE WHICH MEETS STABILITY CRITERION OF THE SINK & SOURCE TERM
 = 0.1000E+31(WHEN MIN. R.F.=1)  AT K=   0, I=   0, J=   0

 MAXIMUM STEPSIZE WHICH MEETS STABILITY CRITERION OF THE DISPERSION TERM
 = 0.5606E-02(WHEN MIN. R.F.=1)  AT K=   3, I=   2, J=  32


     1 CALLS TO GCG PACKAGE FOR TRANSPORT TIME STEP   1 IN FLOW TIME STEP  64 STRESS PERIOD   2
    12 TOTAL ITERATIONS

 NO OUTPUT CONTROL FOR STRESS PERIOD    2   TIME STEP  64
 
 SOLVING FOR HEAD 
 FLOW MODEL IS TRANSIENT
 FLOW MODEL CONTAINS CONSTANT-HEAD CELLS


 MAXIMUM STEPSIZE DURING WHICH ANY PARTICLE CANNOT MOVE MORE THAN ONE CELL
 = 0.1187    (WHEN MIN. R.F.=1)  AT K=   3, I=   2, J=  33

 MAXIMUM STEPSIZE WHICH MEETS STABILITY CRITERION OF THE ADVECTION TERM
 (FOR PURE FINITE-DIFFERENCE OPTION, MIXELM=0) 
 = 0.8138E-01(WHEN MIN. R.F.=1)  AT K=   3, I=   2, J=  32


 TOTAL NUMBER OF POINT SOURCES/SINKS PRESENT IN THE FLOW MODEL =   240

 MAXIMUM STEPSIZE WHICH MEETS STABILITY CRITERION OF THE SINK & SOURCE TERM
 = 0.1000E+31(WHEN MIN. R.F.=1)  AT K=   0, I=   0, J=   0

 MAXIMUM STEPSIZE WHICH MEETS STABILITY CRITERION OF THE DISPERSION TERM
 = 0.5606E-02(WHEN MIN. R.F.=1)  AT K=   3, I=   2, J=  32
     1 CALLS TO GCG PACKAGE FOR TRANSPORT TIME STEP   2 IN FLOW TIME STEP  64 STRESS PERIOD   2
    12 TOTAL ITERATIONS
 
 SOLVING FOR HEAD 
 FLOW MODEL IS TRANSIENT
 FLOW MODEL CONTAINS CONSTANT-HEAD CELLS


 MAXIMUM STEPSIZE DURING WHICH ANY PARTICLE CANNOT MOVE MORE THAN ONE CELL
 = 0.1187    (WHEN MIN. R.F.=1)  AT K=   3, I=   2, J=  33

 MAXIMUM STEPSIZE WHICH MEETS STABILITY CRITERION OF THE ADVECTION TERM
 (FOR PURE FINITE-DIFFERENCE OPTION, MIXELM=0) 
 = 0.8138E-01(WHEN MIN. R.F.=1)  AT K=   3, I=   2, J=  32


 TOTAL NUMBER OF POINT SOURCES/SINKS PRESENT IN THE FLOW MODEL =   240

 MAXIMUM STEPSIZE WHICH MEETS STABILITY CRITERION OF THE SINK & SOURCE TERM
 = 0.1000E+31(WHEN MIN. R.F.=1)  AT K=   0, I=   0, J=   0

 MAXIMUM STEPSIZE WHICH MEETS STABILITY CRITERION OF THE DISPERSION TERM
 = 0.5605E-02(WHEN MIN. R.F.=1)  AT K=   3, I=   2, J=  32
     1 CALLS TO GCG PACKAGE FOR TRANSPORT TIME STEP   3 IN FLOW TIME STEP  64 STRESS PERIOD   2
    12 TOTAL ITERATIONS
 
 SOLVING FOR HEAD 
 FLOW MODEL IS TRANSIENT
 FLOW MODEL CONTAINS CONSTANT-HEAD CELLS


 MAXIMUM STEPSIZE DURING WHICH ANY PARTICLE CANNOT MOVE MORE THAN ONE CELL
 = 0.1187    (WHEN MIN. R.F.=1)  AT K=   3, I=   2, J=  33

 MAXIMUM STEPSIZE WHICH MEETS STABILITY CRITERION OF THE ADVECTION TERM
 (FOR PURE FINITE-DIFFERENCE OPTION, MIXELM=0) 
 = 0.8138E-01(WHEN MIN. R.F.=1)  AT K=   3, I=   2, J=  32


 TOTAL NUMBER OF POINT SOURCES/SINKS PRESENT IN THE FLOW MODEL =   240

 MAXIMUM STEPSIZE WHICH MEETS STABILITY CRITERION OF THE SINK & SOURCE TERM
 = 0.1000E+31(WHEN MIN. R.F.=1)  AT K=   0, I=   0, J=   0

 MAXIMUM STEPSIZE WHICH MEETS STABILITY CRITERION OF THE DISPERSION TERM
 = 0.5605E-02(WHEN MIN. R.F.=1)  AT K=   3, I=   2, J=  32
     1 CALLS TO GCG PACKAGE FOR TRANSPORT TIME STEP   4 IN FLOW TIME STEP  64 STRESS PERIOD   2
    12 TOTAL ITERATIONS
 
 SOLVING FOR HEAD 
 FLOW MODEL IS TRANSIENT
 FLOW MODEL CONTAINS CONSTANT-HEAD CELLS


 MAXIMUM STEPSIZE DURING WHICH ANY PARTICLE CANNOT MOVE MORE THAN ONE CELL
 = 0.1187    (WHEN MIN. R.F.=1)  AT K=   3, I=   2, J=  33

 MAXIMUM STEPSIZE WHICH MEETS STABILITY CRITERION OF THE ADVECTION TERM
 (FOR PURE FINITE-DIFFERENCE OPTION, MIXELM=0) 
 = 0.8138E-01(WHEN MIN. R.F.=1)  AT K=   3, I=   2, J=  32


 TOTAL NUMBER OF POINT SOURCES/SINKS PRESENT IN THE FLOW MODEL =   240

 MAXIMUM STEPSIZE WHICH MEETS STABILITY CRITERION OF THE SINK & SOURCE TERM
 = 0.1000E+31(WHEN MIN. R.F.=1)  AT K=   0, I=   0, J=   0

 MAXIMUM STEPSIZE WHICH MEETS STABILITY CRITERION OF THE DISPERSION TERM
 = 0.5605E-02(WHEN MIN. R.F.=1)  AT K=   3, I=   2, J=  32
     1 CALLS TO GCG PACKAGE FOR TRANSPORT TIME STEP   5 IN FLOW TIME STEP  64 STRESS PERIOD   2
    12 TOTAL ITERATIONS
 
 SOLVING FOR HEAD 
 FLOW MODEL IS TRANSIENT
 FLOW MODEL CONTAINS CONSTANT-HEAD CELLS


 MAXIMUM STEPSIZE DURING WHICH ANY PARTICLE CANNOT MOVE MORE THAN ONE CELL
 = 0.1187    (WHEN MIN. R.F.=1)  AT K=   3, I=   2, J=  33

 MAXIMUM STEPSIZE WHICH MEETS STABILITY CRITERION OF THE ADVECTION TERM
 (FOR PURE FINITE-DIFFERENCE OPTION, MIXELM=0) 
 = 0.8138E-01(WHEN MIN. R.F.=1)  AT K=   3, I=   2, J=  32


 TOTAL NUMBER OF POINT SOURCES/SINKS PRESENT IN THE FLOW MODEL =   240

 MAXIMUM STEPSIZE WHICH MEETS STABILITY CRITERION OF THE SINK & SOURCE TERM
 = 0.1000E+31(WHEN MIN. R.F.=1)  AT K=   0, I=   0, J=   0

 MAXIMUM STEPSIZE WHICH MEETS STABILITY CRITERION OF THE DISPERSION TERM
 = 0.5605E-02(WHEN MIN. R.F.=1)  AT K=   3, I=   2, J=  32
     1 CALLS TO GCG PACKAGE FOR TRANSPORT TIME STEP   6 IN FLOW TIME STEP  64 STRESS PERIOD   2
    12 TOTAL ITERATIONS
 
 SOLVING FOR HEAD 
 FLOW MODEL IS TRANSIENT
 FLOW MODEL CONTAINS CONSTANT-HEAD CELLS


 MAXIMUM STEPSIZE DURING WHICH ANY PARTICLE CANNOT MOVE MORE THAN ONE CELL
 = 0.1187    (WHEN MIN. R.F.=1)  AT K=   3, I=   2, J=  33

 MAXIMUM STEPSIZE WHICH MEETS STABILITY CRITERION OF THE ADVECTION TERM
 (FOR PURE FINITE-DIFFERENCE OPTION, MIXELM=0) 
 = 0.8138E-01(WHEN MIN. R.F.=1)  AT K=   3, I=   2, J=  32


 TOTAL NUMBER OF POINT SOURCES/SINKS PRESENT IN THE FLOW MODEL =   240

 MAXIMUM STEPSIZE WHICH MEETS STABILITY CRITERION OF THE SINK & SOURCE TERM
 = 0.1000E+31(WHEN MIN. R.F.=1)  AT K=   0, I=   0, J=   0

 MAXIMUM STEPSIZE WHICH MEETS STABILITY CRITERION OF THE DISPERSION TERM
 = 0.5605E-02(WHEN MIN. R.F.=1)  AT K=   3, I=   2, J=  32
     1 CALLS TO GCG PACKAGE FOR TRANSPORT TIME STEP   7 IN FLOW TIME STEP  64 STRESS PERIOD   2
    12 TOTAL ITERATIONS
 
 SOLVING FOR HEAD 
 FLOW MODEL IS TRANSIENT
 FLOW MODEL CONTAINS CONSTANT-HEAD CELLS


 MAXIMUM STEPSIZE DURING WHICH ANY PARTICLE CANNOT MOVE MORE THAN ONE CELL
 = 0.1187    (WHEN MIN. R.F.=1)  AT K=   3, I=   2, J=  33

 MAXIMUM STEPSIZE WHICH MEETS STABILITY CRITERION OF THE ADVECTION TERM
 (FOR PURE FINITE-DIFFERENCE OPTION, MIXELM=0) 
 = 0.8138E-01(WHEN MIN. R.F.=1)  AT K=   3, I=   2, J=  32


 TOTAL NUMBER OF POINT SOURCES/SINKS PRESENT IN THE FLOW MODEL =   240

 MAXIMUM STEPSIZE WHICH MEETS STABILITY CRITERION OF THE SINK & SOURCE TERM
 = 0.1000E+31(WHEN MIN. R.F.=1)  AT K=   0, I=   0, J=   0

 MAXIMUM STEPSIZE WHICH MEETS STABILITY CRITERION OF THE DISPERSION TERM
 = 0.5605E-02(WHEN MIN. R.F.=1)  AT K=   3, I=   2, J=  32
     1 CALLS TO GCG PACKAGE FOR TRANSPORT TIME STEP   8 IN FLOW TIME STEP  64 STRESS PERIOD   2
    12 TOTAL ITERATIONS
 
 SOLVING FOR HEAD 
 FLOW MODEL IS TRANSIENT
 FLOW MODEL CONTAINS CONSTANT-HEAD CELLS


 MAXIMUM STEPSIZE DURING WHICH ANY PARTICLE CANNOT MOVE MORE THAN ONE CELL
 = 0.1187    (WHEN MIN. R.F.=1)  AT K=   3, I=   2, J=  33

 MAXIMUM STEPSIZE WHICH MEETS STABILITY CRITERION OF THE ADVECTION TERM
 (FOR PURE FINITE-DIFFERENCE OPTION, MIXELM=0) 
 = 0.8138E-01(WHEN MIN. R.F.=1)  AT K=   3, I=   2, J=  32


 TOTAL NUMBER OF POINT SOURCES/SINKS PRESENT IN THE FLOW MODEL =   240

 MAXIMUM STEPSIZE WHICH MEETS STABILITY CRITERION OF THE SINK & SOURCE TERM
 = 0.1000E+31(WHEN MIN. R.F.=1)  AT K=   0, I=   0, J=   0

 MAXIMUM STEPSIZE WHICH MEETS STABILITY CRITERION OF THE DISPERSION TERM
 = 0.5605E-02(WHEN MIN. R.F.=1)  AT K=   3, I=   2, J=  32
     1 CALLS TO GCG PACKAGE FOR TRANSPORT TIME STEP   9 IN FLOW TIME STEP  64 STRESS PERIOD   2
    12 TOTAL ITERATIONS
 
 SOLVING FOR HEAD 
 FLOW MODEL IS TRANSIENT
 FLOW MODEL CONTAINS CONSTANT-HEAD CELLS


 MAXIMUM STEPSIZE DURING WHICH ANY PARTICLE CANNOT MOVE MORE THAN ONE CELL
 = 0.1187    (WHEN MIN. R.F.=1)  AT K=   3, I=   2, J=  33

 MAXIMUM STEPSIZE WHICH MEETS STABILITY CRITERION OF THE ADVECTION TERM
 (FOR PURE FINITE-DIFFERENCE OPTION, MIXELM=0) 
 = 0.8138E-01(WHEN MIN. R.F.=1)  AT K=   3, I=   2, J=  32


 TOTAL NUMBER OF POINT SOURCES/SINKS PRESENT IN THE FLOW MODEL =   240

 MAXIMUM STEPSIZE WHICH MEETS STABILITY CRITERION OF THE SINK & SOURCE TERM
 = 0.1000E+31(WHEN MIN. R.F.=1)  AT K=   0, I=   0, J=   0

 MAXIMUM STEPSIZE WHICH MEETS STABILITY CRITERION OF THE DISPERSION TERM
 = 0.5605E-02(WHEN MIN. R.F.=1)  AT K=   3, I=   2, J=  32
     1 CALLS TO GCG PACKAGE FOR TRANSPORT TIME STEP  10 IN FLOW TIME STEP  64 STRESS PERIOD   2
    12 TOTAL ITERATIONS



 >>>>>>>>>>>>>>>>>>>>>>>>>>>>>>>>>>>>>>>>>>>>>>>>>>>>>>>FOR COMPONENT NO. 01<<<<<<<<<<<<<<<<<<<<<<<<<<<<<<<<<<<<<<<<<<<<<<<<<<<<<<<


                                            -------------------------------------------
                                                      TRANSPORT STEP NO.   10
                                            -------------------------------------------

 TOTAL ELAPSED TIME SINCE BEGINNING OF SIMULATION =   64.89056    D   
 .....................................................................

                     CUMULATIVE MASS BUDGETS AT END OF TRANSPORT STEP   10, TIME STEP   64, STRESS PERIOD    2
                     ------------------------------------------------------------------------------------------

                                                             IN                           OUT
                                                      ----------------             ----------------
                               CONSTANT CONCENTRATION:    10297.77                   -5641.298    
                                        CONSTANT HEAD:    0.000000                    0.000000    
                               MASS STOR (FLOW MODEL):   0.1283269E-01              -0.3373325E-02
                                MASS STORAGE (SOLUTE):    5.750237                   -4662.235    
                            ---------------------------------------------------------------------------
                                              [TOTAL]:    10303.53     KG            -10303.54     KG  

                                                          NET (IN - OUT):  -0.3008262E-02
                                                   DISCREPANCY (PERCENT):  -0.2919640E-04
 
 SOLVING FOR HEAD 
 FLOW MODEL IS TRANSIENT
 FLOW MODEL CONTAINS CONSTANT-HEAD CELLS


 MAXIMUM STEPSIZE DURING WHICH ANY PARTICLE CANNOT MOVE MORE THAN ONE CELL
 = 0.1187    (WHEN MIN. R.F.=1)  AT K=   3, I=   2, J=  33

 MAXIMUM STEPSIZE WHICH MEETS STABILITY CRITERION OF THE ADVECTION TERM
 (FOR PURE FINITE-DIFFERENCE OPTION, MIXELM=0) 
 = 0.8138E-01(WHEN MIN. R.F.=1)  AT K=   3, I=   2, J=  32


 TOTAL NUMBER OF POINT SOURCES/SINKS PRESENT IN THE FLOW MODEL =   240

 MAXIMUM STEPSIZE WHICH MEETS STABILITY CRITERION OF THE SINK & SOURCE TERM
 = 0.1000E+31(WHEN MIN. R.F.=1)  AT K=   0, I=   0, J=   0

 MAXIMUM STEPSIZE WHICH MEETS STABILITY CRITERION OF THE DISPERSION TERM
 = 0.5605E-02(WHEN MIN. R.F.=1)  AT K=   3, I=   2, J=  32
     1 CALLS TO GCG PACKAGE FOR TRANSPORT TIME STEP  11 IN FLOW TIME STEP  64 STRESS PERIOD   2
    12 TOTAL ITERATIONS
 
 SOLVING FOR HEAD 
 FLOW MODEL IS TRANSIENT
 FLOW MODEL CONTAINS CONSTANT-HEAD CELLS


 MAXIMUM STEPSIZE DURING WHICH ANY PARTICLE CANNOT MOVE MORE THAN ONE CELL
 = 0.1187    (WHEN MIN. R.F.=1)  AT K=   3, I=   2, J=  33

 MAXIMUM STEPSIZE WHICH MEETS STABILITY CRITERION OF THE ADVECTION TERM
 (FOR PURE FINITE-DIFFERENCE OPTION, MIXELM=0) 
 = 0.8138E-01(WHEN MIN. R.F.=1)  AT K=   3, I=   2, J=  32


 TOTAL NUMBER OF POINT SOURCES/SINKS PRESENT IN THE FLOW MODEL =   240

 MAXIMUM STEPSIZE WHICH MEETS STABILITY CRITERION OF THE SINK & SOURCE TERM
 = 0.1000E+31(WHEN MIN. R.F.=1)  AT K=   0, I=   0, J=   0

 MAXIMUM STEPSIZE WHICH MEETS STABILITY CRITERION OF THE DISPERSION TERM
 = 0.5605E-02(WHEN MIN. R.F.=1)  AT K=   3, I=   2, J=  32
     1 CALLS TO GCG PACKAGE FOR TRANSPORT TIME STEP  12 IN FLOW TIME STEP  64 STRESS PERIOD   2
     6 TOTAL ITERATIONS
  MAXIMUM CONCENTRATION CHANGES FOR EACH ITERATION:
  MAX. CHANGE LAYER,ROW,COL MAX. CHANGE LAYER,ROW,COL MAX. CHANGE LAYER,ROW,COL MAX. CHANGE LAYER,ROW,COL MAX. CHANGE LAYER,ROW,COL
 ------------------------------------------------------------------------------------------------------------------------------------
   0.1377E-03 ( 14,  2, 57)  0.9347E-05 (  6,  2, 60)  0.1377E-05 (  5,  2, 57)  0.3415E-06 (  7,  2, 60)  0.1548E-06 (  4,  2, 33)
   0.6109E-07 (  3,  2, 32)


                                          ================================================
                                                         FROM TIME =   65.000     TO    66.000    

 
 SOLVING FOR HEAD 
 FLOW MODEL IS TRANSIENT
 FLOW MODEL CONTAINS CONSTANT-HEAD CELLS


 MAXIMUM STEPSIZE DURING WHICH ANY PARTICLE CANNOT MOVE MORE THAN ONE CELL
 = 0.1187    (WHEN MIN. R.F.=1)  AT K=   3, I=   2, J=  33

 MAXIMUM STEPSIZE WHICH MEETS STABILITY CRITERION OF THE ADVECTION TERM
 (FOR PURE FINITE-DIFFERENCE OPTION, MIXELM=0) 
 = 0.8138E-01(WHEN MIN. R.F.=1)  AT K=   3, I=   2, J=  32


 TOTAL NUMBER OF POINT SOURCES/SINKS PRESENT IN THE FLOW MODEL =   240

 MAXIMUM STEPSIZE WHICH MEETS STABILITY CRITERION OF THE SINK & SOURCE TERM
 = 0.1000E+31(WHEN MIN. R.F.=1)  AT K=   0, I=   0, J=   0

 MAXIMUM STEPSIZE WHICH MEETS STABILITY CRITERION OF THE DISPERSION TERM
 = 0.5605E-02(WHEN MIN. R.F.=1)  AT K=   3, I=   2, J=  32


     1 CALLS TO GCG PACKAGE FOR TRANSPORT TIME STEP   1 IN FLOW TIME STEP  65 STRESS PERIOD   2
    12 TOTAL ITERATIONS

 NO OUTPUT CONTROL FOR STRESS PERIOD    2   TIME STEP  65
 
 SOLVING FOR HEAD 
 FLOW MODEL IS TRANSIENT
 FLOW MODEL CONTAINS CONSTANT-HEAD CELLS


 MAXIMUM STEPSIZE DURING WHICH ANY PARTICLE CANNOT MOVE MORE THAN ONE CELL
 = 0.1187    (WHEN MIN. R.F.=1)  AT K=   3, I=   2, J=  33

 MAXIMUM STEPSIZE WHICH MEETS STABILITY CRITERION OF THE ADVECTION TERM
 (FOR PURE FINITE-DIFFERENCE OPTION, MIXELM=0) 
 = 0.8138E-01(WHEN MIN. R.F.=1)  AT K=   3, I=   2, J=  32


 TOTAL NUMBER OF POINT SOURCES/SINKS PRESENT IN THE FLOW MODEL =   240

 MAXIMUM STEPSIZE WHICH MEETS STABILITY CRITERION OF THE SINK & SOURCE TERM
 = 0.1000E+31(WHEN MIN. R.F.=1)  AT K=   0, I=   0, J=   0

 MAXIMUM STEPSIZE WHICH MEETS STABILITY CRITERION OF THE DISPERSION TERM
 = 0.5605E-02(WHEN MIN. R.F.=1)  AT K=   3, I=   2, J=  32
     1 CALLS TO GCG PACKAGE FOR TRANSPORT TIME STEP   2 IN FLOW TIME STEP  65 STRESS PERIOD   2
    12 TOTAL ITERATIONS
 
 SOLVING FOR HEAD 
 FLOW MODEL IS TRANSIENT
 FLOW MODEL CONTAINS CONSTANT-HEAD CELLS


 MAXIMUM STEPSIZE DURING WHICH ANY PARTICLE CANNOT MOVE MORE THAN ONE CELL
 = 0.1187    (WHEN MIN. R.F.=1)  AT K=   3, I=   2, J=  33

 MAXIMUM STEPSIZE WHICH MEETS STABILITY CRITERION OF THE ADVECTION TERM
 (FOR PURE FINITE-DIFFERENCE OPTION, MIXELM=0) 
 = 0.8138E-01(WHEN MIN. R.F.=1)  AT K=   3, I=   2, J=  32


 TOTAL NUMBER OF POINT SOURCES/SINKS PRESENT IN THE FLOW MODEL =   240

 MAXIMUM STEPSIZE WHICH MEETS STABILITY CRITERION OF THE SINK & SOURCE TERM
 = 0.1000E+31(WHEN MIN. R.F.=1)  AT K=   0, I=   0, J=   0

 MAXIMUM STEPSIZE WHICH MEETS STABILITY CRITERION OF THE DISPERSION TERM
 = 0.5605E-02(WHEN MIN. R.F.=1)  AT K=   3, I=   2, J=  32
     1 CALLS TO GCG PACKAGE FOR TRANSPORT TIME STEP   3 IN FLOW TIME STEP  65 STRESS PERIOD   2
    12 TOTAL ITERATIONS
 
 SOLVING FOR HEAD 
 FLOW MODEL IS TRANSIENT
 FLOW MODEL CONTAINS CONSTANT-HEAD CELLS


 MAXIMUM STEPSIZE DURING WHICH ANY PARTICLE CANNOT MOVE MORE THAN ONE CELL
 = 0.1187    (WHEN MIN. R.F.=1)  AT K=   3, I=   2, J=  33

 MAXIMUM STEPSIZE WHICH MEETS STABILITY CRITERION OF THE ADVECTION TERM
 (FOR PURE FINITE-DIFFERENCE OPTION, MIXELM=0) 
 = 0.8138E-01(WHEN MIN. R.F.=1)  AT K=   3, I=   2, J=  32


 TOTAL NUMBER OF POINT SOURCES/SINKS PRESENT IN THE FLOW MODEL =   240

 MAXIMUM STEPSIZE WHICH MEETS STABILITY CRITERION OF THE SINK & SOURCE TERM
 = 0.1000E+31(WHEN MIN. R.F.=1)  AT K=   0, I=   0, J=   0

 MAXIMUM STEPSIZE WHICH MEETS STABILITY CRITERION OF THE DISPERSION TERM
 = 0.5605E-02(WHEN MIN. R.F.=1)  AT K=   3, I=   2, J=  32
     1 CALLS TO GCG PACKAGE FOR TRANSPORT TIME STEP   4 IN FLOW TIME STEP  65 STRESS PERIOD   2
    12 TOTAL ITERATIONS
 
 SOLVING FOR HEAD 
 FLOW MODEL IS TRANSIENT
 FLOW MODEL CONTAINS CONSTANT-HEAD CELLS


 MAXIMUM STEPSIZE DURING WHICH ANY PARTICLE CANNOT MOVE MORE THAN ONE CELL
 = 0.1187    (WHEN MIN. R.F.=1)  AT K=   3, I=   2, J=  33

 MAXIMUM STEPSIZE WHICH MEETS STABILITY CRITERION OF THE ADVECTION TERM
 (FOR PURE FINITE-DIFFERENCE OPTION, MIXELM=0) 
 = 0.8138E-01(WHEN MIN. R.F.=1)  AT K=   3, I=   2, J=  32


 TOTAL NUMBER OF POINT SOURCES/SINKS PRESENT IN THE FLOW MODEL =   240

 MAXIMUM STEPSIZE WHICH MEETS STABILITY CRITERION OF THE SINK & SOURCE TERM
 = 0.1000E+31(WHEN MIN. R.F.=1)  AT K=   0, I=   0, J=   0

 MAXIMUM STEPSIZE WHICH MEETS STABILITY CRITERION OF THE DISPERSION TERM
 = 0.5605E-02(WHEN MIN. R.F.=1)  AT K=   3, I=   2, J=  32
     1 CALLS TO GCG PACKAGE FOR TRANSPORT TIME STEP   5 IN FLOW TIME STEP  65 STRESS PERIOD   2
    12 TOTAL ITERATIONS
 
 SOLVING FOR HEAD 
 FLOW MODEL IS TRANSIENT
 FLOW MODEL CONTAINS CONSTANT-HEAD CELLS


 MAXIMUM STEPSIZE DURING WHICH ANY PARTICLE CANNOT MOVE MORE THAN ONE CELL
 = 0.1187    (WHEN MIN. R.F.=1)  AT K=   3, I=   2, J=  33

 MAXIMUM STEPSIZE WHICH MEETS STABILITY CRITERION OF THE ADVECTION TERM
 (FOR PURE FINITE-DIFFERENCE OPTION, MIXELM=0) 
 = 0.8138E-01(WHEN MIN. R.F.=1)  AT K=   3, I=   2, J=  32


 TOTAL NUMBER OF POINT SOURCES/SINKS PRESENT IN THE FLOW MODEL =   240

 MAXIMUM STEPSIZE WHICH MEETS STABILITY CRITERION OF THE SINK & SOURCE TERM
 = 0.1000E+31(WHEN MIN. R.F.=1)  AT K=   0, I=   0, J=   0

 MAXIMUM STEPSIZE WHICH MEETS STABILITY CRITERION OF THE DISPERSION TERM
 = 0.5605E-02(WHEN MIN. R.F.=1)  AT K=   3, I=   2, J=  32
     1 CALLS TO GCG PACKAGE FOR TRANSPORT TIME STEP   6 IN FLOW TIME STEP  65 STRESS PERIOD   2
    12 TOTAL ITERATIONS
 
 SOLVING FOR HEAD 
 FLOW MODEL IS TRANSIENT
 FLOW MODEL CONTAINS CONSTANT-HEAD CELLS


 MAXIMUM STEPSIZE DURING WHICH ANY PARTICLE CANNOT MOVE MORE THAN ONE CELL
 = 0.1187    (WHEN MIN. R.F.=1)  AT K=   3, I=   2, J=  33

 MAXIMUM STEPSIZE WHICH MEETS STABILITY CRITERION OF THE ADVECTION TERM
 (FOR PURE FINITE-DIFFERENCE OPTION, MIXELM=0) 
 = 0.8138E-01(WHEN MIN. R.F.=1)  AT K=   3, I=   2, J=  32


 TOTAL NUMBER OF POINT SOURCES/SINKS PRESENT IN THE FLOW MODEL =   240

 MAXIMUM STEPSIZE WHICH MEETS STABILITY CRITERION OF THE SINK & SOURCE TERM
 = 0.1000E+31(WHEN MIN. R.F.=1)  AT K=   0, I=   0, J=   0

 MAXIMUM STEPSIZE WHICH MEETS STABILITY CRITERION OF THE DISPERSION TERM
 = 0.5605E-02(WHEN MIN. R.F.=1)  AT K=   3, I=   2, J=  32
     1 CALLS TO GCG PACKAGE FOR TRANSPORT TIME STEP   7 IN FLOW TIME STEP  65 STRESS PERIOD   2
    12 TOTAL ITERATIONS
 
 SOLVING FOR HEAD 
 FLOW MODEL IS TRANSIENT
 FLOW MODEL CONTAINS CONSTANT-HEAD CELLS


 MAXIMUM STEPSIZE DURING WHICH ANY PARTICLE CANNOT MOVE MORE THAN ONE CELL
 = 0.1187    (WHEN MIN. R.F.=1)  AT K=   3, I=   2, J=  33

 MAXIMUM STEPSIZE WHICH MEETS STABILITY CRITERION OF THE ADVECTION TERM
 (FOR PURE FINITE-DIFFERENCE OPTION, MIXELM=0) 
 = 0.8138E-01(WHEN MIN. R.F.=1)  AT K=   3, I=   2, J=  32


 TOTAL NUMBER OF POINT SOURCES/SINKS PRESENT IN THE FLOW MODEL =   240

 MAXIMUM STEPSIZE WHICH MEETS STABILITY CRITERION OF THE SINK & SOURCE TERM
 = 0.1000E+31(WHEN MIN. R.F.=1)  AT K=   0, I=   0, J=   0

 MAXIMUM STEPSIZE WHICH MEETS STABILITY CRITERION OF THE DISPERSION TERM
 = 0.5605E-02(WHEN MIN. R.F.=1)  AT K=   3, I=   2, J=  32
     1 CALLS TO GCG PACKAGE FOR TRANSPORT TIME STEP   8 IN FLOW TIME STEP  65 STRESS PERIOD   2
    12 TOTAL ITERATIONS
 
 SOLVING FOR HEAD 
 FLOW MODEL IS TRANSIENT
 FLOW MODEL CONTAINS CONSTANT-HEAD CELLS


 MAXIMUM STEPSIZE DURING WHICH ANY PARTICLE CANNOT MOVE MORE THAN ONE CELL
 = 0.1187    (WHEN MIN. R.F.=1)  AT K=   3, I=   2, J=  33

 MAXIMUM STEPSIZE WHICH MEETS STABILITY CRITERION OF THE ADVECTION TERM
 (FOR PURE FINITE-DIFFERENCE OPTION, MIXELM=0) 
 = 0.8138E-01(WHEN MIN. R.F.=1)  AT K=   3, I=   2, J=  32


 TOTAL NUMBER OF POINT SOURCES/SINKS PRESENT IN THE FLOW MODEL =   240

 MAXIMUM STEPSIZE WHICH MEETS STABILITY CRITERION OF THE SINK & SOURCE TERM
 = 0.1000E+31(WHEN MIN. R.F.=1)  AT K=   0, I=   0, J=   0

 MAXIMUM STEPSIZE WHICH MEETS STABILITY CRITERION OF THE DISPERSION TERM
 = 0.5605E-02(WHEN MIN. R.F.=1)  AT K=   3, I=   2, J=  32
     1 CALLS TO GCG PACKAGE FOR TRANSPORT TIME STEP   9 IN FLOW TIME STEP  65 STRESS PERIOD   2
    12 TOTAL ITERATIONS
 
 SOLVING FOR HEAD 
 FLOW MODEL IS TRANSIENT
 FLOW MODEL CONTAINS CONSTANT-HEAD CELLS


 MAXIMUM STEPSIZE DURING WHICH ANY PARTICLE CANNOT MOVE MORE THAN ONE CELL
 = 0.1187    (WHEN MIN. R.F.=1)  AT K=   3, I=   2, J=  33

 MAXIMUM STEPSIZE WHICH MEETS STABILITY CRITERION OF THE ADVECTION TERM
 (FOR PURE FINITE-DIFFERENCE OPTION, MIXELM=0) 
 = 0.8138E-01(WHEN MIN. R.F.=1)  AT K=   3, I=   2, J=  32


 TOTAL NUMBER OF POINT SOURCES/SINKS PRESENT IN THE FLOW MODEL =   240

 MAXIMUM STEPSIZE WHICH MEETS STABILITY CRITERION OF THE SINK & SOURCE TERM
 = 0.1000E+31(WHEN MIN. R.F.=1)  AT K=   0, I=   0, J=   0

 MAXIMUM STEPSIZE WHICH MEETS STABILITY CRITERION OF THE DISPERSION TERM
 = 0.5605E-02(WHEN MIN. R.F.=1)  AT K=   3, I=   2, J=  32
     1 CALLS TO GCG PACKAGE FOR TRANSPORT TIME STEP  10 IN FLOW TIME STEP  65 STRESS PERIOD   2
    12 TOTAL ITERATIONS



 >>>>>>>>>>>>>>>>>>>>>>>>>>>>>>>>>>>>>>>>>>>>>>>>>>>>>>>FOR COMPONENT NO. 01<<<<<<<<<<<<<<<<<<<<<<<<<<<<<<<<<<<<<<<<<<<<<<<<<<<<<<<


                                            -------------------------------------------
                                                      TRANSPORT STEP NO.   10
                                            -------------------------------------------

 TOTAL ELAPSED TIME SINCE BEGINNING OF SIMULATION =   65.89054    D   
 .....................................................................

                     CUMULATIVE MASS BUDGETS AT END OF TRANSPORT STEP   10, TIME STEP   65, STRESS PERIOD    2
                     ------------------------------------------------------------------------------------------

                                                             IN                           OUT
                                                      ----------------             ----------------
                               CONSTANT CONCENTRATION:    10405.85                   -5733.999    
                                        CONSTANT HEAD:    0.000000                    0.000000    
                               MASS STOR (FLOW MODEL):   0.1284895E-01              -0.3377218E-02
                                MASS STORAGE (SOLUTE):    6.108197                   -4677.973    
                            ---------------------------------------------------------------------------
                                              [TOTAL]:    10411.97     KG            -10411.97     KG  

                                                          NET (IN - OUT):  -0.3023432E-02
                                                   DISCREPANCY (PERCENT):  -0.2903803E-04
 
 SOLVING FOR HEAD 
 FLOW MODEL IS TRANSIENT
 FLOW MODEL CONTAINS CONSTANT-HEAD CELLS


 MAXIMUM STEPSIZE DURING WHICH ANY PARTICLE CANNOT MOVE MORE THAN ONE CELL
 = 0.1187    (WHEN MIN. R.F.=1)  AT K=   3, I=   2, J=  33

 MAXIMUM STEPSIZE WHICH MEETS STABILITY CRITERION OF THE ADVECTION TERM
 (FOR PURE FINITE-DIFFERENCE OPTION, MIXELM=0) 
 = 0.8138E-01(WHEN MIN. R.F.=1)  AT K=   3, I=   2, J=  32


 TOTAL NUMBER OF POINT SOURCES/SINKS PRESENT IN THE FLOW MODEL =   240

 MAXIMUM STEPSIZE WHICH MEETS STABILITY CRITERION OF THE SINK & SOURCE TERM
 = 0.1000E+31(WHEN MIN. R.F.=1)  AT K=   0, I=   0, J=   0

 MAXIMUM STEPSIZE WHICH MEETS STABILITY CRITERION OF THE DISPERSION TERM
 = 0.5605E-02(WHEN MIN. R.F.=1)  AT K=   3, I=   2, J=  32
     1 CALLS TO GCG PACKAGE FOR TRANSPORT TIME STEP  11 IN FLOW TIME STEP  65 STRESS PERIOD   2
    12 TOTAL ITERATIONS
 
 SOLVING FOR HEAD 
 FLOW MODEL IS TRANSIENT
 FLOW MODEL CONTAINS CONSTANT-HEAD CELLS


 MAXIMUM STEPSIZE DURING WHICH ANY PARTICLE CANNOT MOVE MORE THAN ONE CELL
 = 0.1187    (WHEN MIN. R.F.=1)  AT K=   3, I=   2, J=  33

 MAXIMUM STEPSIZE WHICH MEETS STABILITY CRITERION OF THE ADVECTION TERM
 (FOR PURE FINITE-DIFFERENCE OPTION, MIXELM=0) 
 = 0.8138E-01(WHEN MIN. R.F.=1)  AT K=   3, I=   2, J=  32


 TOTAL NUMBER OF POINT SOURCES/SINKS PRESENT IN THE FLOW MODEL =   240

 MAXIMUM STEPSIZE WHICH MEETS STABILITY CRITERION OF THE SINK & SOURCE TERM
 = 0.1000E+31(WHEN MIN. R.F.=1)  AT K=   0, I=   0, J=   0

 MAXIMUM STEPSIZE WHICH MEETS STABILITY CRITERION OF THE DISPERSION TERM
 = 0.5605E-02(WHEN MIN. R.F.=1)  AT K=   3, I=   2, J=  32
     1 CALLS TO GCG PACKAGE FOR TRANSPORT TIME STEP  12 IN FLOW TIME STEP  65 STRESS PERIOD   2
     6 TOTAL ITERATIONS
  MAXIMUM CONCENTRATION CHANGES FOR EACH ITERATION:
  MAX. CHANGE LAYER,ROW,COL MAX. CHANGE LAYER,ROW,COL MAX. CHANGE LAYER,ROW,COL MAX. CHANGE LAYER,ROW,COL MAX. CHANGE LAYER,ROW,COL
 ------------------------------------------------------------------------------------------------------------------------------------
   0.1355E-03 ( 14,  2, 57)  0.9047E-05 (  6,  2, 60)  0.1334E-05 (  5,  2, 57)  0.3297E-06 (  7,  2, 60)  0.1497E-06 (  4,  2, 33)
   0.5907E-07 (  3,  2, 32)


                                          ================================================
                                                         FROM TIME =   66.000     TO    67.000    

 
 SOLVING FOR HEAD 
 FLOW MODEL IS TRANSIENT
 FLOW MODEL CONTAINS CONSTANT-HEAD CELLS


 MAXIMUM STEPSIZE DURING WHICH ANY PARTICLE CANNOT MOVE MORE THAN ONE CELL
 = 0.1187    (WHEN MIN. R.F.=1)  AT K=   3, I=   2, J=  33

 MAXIMUM STEPSIZE WHICH MEETS STABILITY CRITERION OF THE ADVECTION TERM
 (FOR PURE FINITE-DIFFERENCE OPTION, MIXELM=0) 
 = 0.8138E-01(WHEN MIN. R.F.=1)  AT K=   3, I=   2, J=  32


 TOTAL NUMBER OF POINT SOURCES/SINKS PRESENT IN THE FLOW MODEL =   240

 MAXIMUM STEPSIZE WHICH MEETS STABILITY CRITERION OF THE SINK & SOURCE TERM
 = 0.1000E+31(WHEN MIN. R.F.=1)  AT K=   0, I=   0, J=   0

 MAXIMUM STEPSIZE WHICH MEETS STABILITY CRITERION OF THE DISPERSION TERM
 = 0.5605E-02(WHEN MIN. R.F.=1)  AT K=   3, I=   2, J=  32


     1 CALLS TO GCG PACKAGE FOR TRANSPORT TIME STEP   1 IN FLOW TIME STEP  66 STRESS PERIOD   2
    12 TOTAL ITERATIONS

 NO OUTPUT CONTROL FOR STRESS PERIOD    2   TIME STEP  66
 
 SOLVING FOR HEAD 
 FLOW MODEL IS TRANSIENT
 FLOW MODEL CONTAINS CONSTANT-HEAD CELLS


 MAXIMUM STEPSIZE DURING WHICH ANY PARTICLE CANNOT MOVE MORE THAN ONE CELL
 = 0.1187    (WHEN MIN. R.F.=1)  AT K=   3, I=   2, J=  33

 MAXIMUM STEPSIZE WHICH MEETS STABILITY CRITERION OF THE ADVECTION TERM
 (FOR PURE FINITE-DIFFERENCE OPTION, MIXELM=0) 
 = 0.8138E-01(WHEN MIN. R.F.=1)  AT K=   3, I=   2, J=  32


 TOTAL NUMBER OF POINT SOURCES/SINKS PRESENT IN THE FLOW MODEL =   240

 MAXIMUM STEPSIZE WHICH MEETS STABILITY CRITERION OF THE SINK & SOURCE TERM
 = 0.1000E+31(WHEN MIN. R.F.=1)  AT K=   0, I=   0, J=   0

 MAXIMUM STEPSIZE WHICH MEETS STABILITY CRITERION OF THE DISPERSION TERM
 = 0.5605E-02(WHEN MIN. R.F.=1)  AT K=   3, I=   2, J=  32
     1 CALLS TO GCG PACKAGE FOR TRANSPORT TIME STEP   2 IN FLOW TIME STEP  66 STRESS PERIOD   2
    12 TOTAL ITERATIONS
 
 SOLVING FOR HEAD 
 FLOW MODEL IS TRANSIENT
 FLOW MODEL CONTAINS CONSTANT-HEAD CELLS


 MAXIMUM STEPSIZE DURING WHICH ANY PARTICLE CANNOT MOVE MORE THAN ONE CELL
 = 0.1187    (WHEN MIN. R.F.=1)  AT K=   3, I=   2, J=  33

 MAXIMUM STEPSIZE WHICH MEETS STABILITY CRITERION OF THE ADVECTION TERM
 (FOR PURE FINITE-DIFFERENCE OPTION, MIXELM=0) 
 = 0.8138E-01(WHEN MIN. R.F.=1)  AT K=   3, I=   2, J=  32


 TOTAL NUMBER OF POINT SOURCES/SINKS PRESENT IN THE FLOW MODEL =   240

 MAXIMUM STEPSIZE WHICH MEETS STABILITY CRITERION OF THE SINK & SOURCE TERM
 = 0.1000E+31(WHEN MIN. R.F.=1)  AT K=   0, I=   0, J=   0

 MAXIMUM STEPSIZE WHICH MEETS STABILITY CRITERION OF THE DISPERSION TERM
 = 0.5605E-02(WHEN MIN. R.F.=1)  AT K=   3, I=   2, J=  32
     1 CALLS TO GCG PACKAGE FOR TRANSPORT TIME STEP   3 IN FLOW TIME STEP  66 STRESS PERIOD   2
    12 TOTAL ITERATIONS
 
 SOLVING FOR HEAD 
 FLOW MODEL IS TRANSIENT
 FLOW MODEL CONTAINS CONSTANT-HEAD CELLS


 MAXIMUM STEPSIZE DURING WHICH ANY PARTICLE CANNOT MOVE MORE THAN ONE CELL
 = 0.1187    (WHEN MIN. R.F.=1)  AT K=   3, I=   2, J=  33

 MAXIMUM STEPSIZE WHICH MEETS STABILITY CRITERION OF THE ADVECTION TERM
 (FOR PURE FINITE-DIFFERENCE OPTION, MIXELM=0) 
 = 0.8138E-01(WHEN MIN. R.F.=1)  AT K=   3, I=   2, J=  32


 TOTAL NUMBER OF POINT SOURCES/SINKS PRESENT IN THE FLOW MODEL =   240

 MAXIMUM STEPSIZE WHICH MEETS STABILITY CRITERION OF THE SINK & SOURCE TERM
 = 0.1000E+31(WHEN MIN. R.F.=1)  AT K=   0, I=   0, J=   0

 MAXIMUM STEPSIZE WHICH MEETS STABILITY CRITERION OF THE DISPERSION TERM
 = 0.5605E-02(WHEN MIN. R.F.=1)  AT K=   3, I=   2, J=  32
     1 CALLS TO GCG PACKAGE FOR TRANSPORT TIME STEP   4 IN FLOW TIME STEP  66 STRESS PERIOD   2
    12 TOTAL ITERATIONS
 
 SOLVING FOR HEAD 
 FLOW MODEL IS TRANSIENT
 FLOW MODEL CONTAINS CONSTANT-HEAD CELLS


 MAXIMUM STEPSIZE DURING WHICH ANY PARTICLE CANNOT MOVE MORE THAN ONE CELL
 = 0.1187    (WHEN MIN. R.F.=1)  AT K=   3, I=   2, J=  33

 MAXIMUM STEPSIZE WHICH MEETS STABILITY CRITERION OF THE ADVECTION TERM
 (FOR PURE FINITE-DIFFERENCE OPTION, MIXELM=0) 
 = 0.8138E-01(WHEN MIN. R.F.=1)  AT K=   3, I=   2, J=  32


 TOTAL NUMBER OF POINT SOURCES/SINKS PRESENT IN THE FLOW MODEL =   240

 MAXIMUM STEPSIZE WHICH MEETS STABILITY CRITERION OF THE SINK & SOURCE TERM
 = 0.1000E+31(WHEN MIN. R.F.=1)  AT K=   0, I=   0, J=   0

 MAXIMUM STEPSIZE WHICH MEETS STABILITY CRITERION OF THE DISPERSION TERM
 = 0.5605E-02(WHEN MIN. R.F.=1)  AT K=   3, I=   2, J=  32
     1 CALLS TO GCG PACKAGE FOR TRANSPORT TIME STEP   5 IN FLOW TIME STEP  66 STRESS PERIOD   2
    12 TOTAL ITERATIONS
 
 SOLVING FOR HEAD 
 FLOW MODEL IS TRANSIENT
 FLOW MODEL CONTAINS CONSTANT-HEAD CELLS


 MAXIMUM STEPSIZE DURING WHICH ANY PARTICLE CANNOT MOVE MORE THAN ONE CELL
 = 0.1187    (WHEN MIN. R.F.=1)  AT K=   3, I=   2, J=  33

 MAXIMUM STEPSIZE WHICH MEETS STABILITY CRITERION OF THE ADVECTION TERM
 (FOR PURE FINITE-DIFFERENCE OPTION, MIXELM=0) 
 = 0.8138E-01(WHEN MIN. R.F.=1)  AT K=   3, I=   2, J=  32


 TOTAL NUMBER OF POINT SOURCES/SINKS PRESENT IN THE FLOW MODEL =   240

 MAXIMUM STEPSIZE WHICH MEETS STABILITY CRITERION OF THE SINK & SOURCE TERM
 = 0.1000E+31(WHEN MIN. R.F.=1)  AT K=   0, I=   0, J=   0

 MAXIMUM STEPSIZE WHICH MEETS STABILITY CRITERION OF THE DISPERSION TERM
 = 0.5605E-02(WHEN MIN. R.F.=1)  AT K=   3, I=   2, J=  32
     1 CALLS TO GCG PACKAGE FOR TRANSPORT TIME STEP   6 IN FLOW TIME STEP  66 STRESS PERIOD   2
    12 TOTAL ITERATIONS
 
 SOLVING FOR HEAD 
 FLOW MODEL IS TRANSIENT
 FLOW MODEL CONTAINS CONSTANT-HEAD CELLS


 MAXIMUM STEPSIZE DURING WHICH ANY PARTICLE CANNOT MOVE MORE THAN ONE CELL
 = 0.1187    (WHEN MIN. R.F.=1)  AT K=   3, I=   2, J=  33

 MAXIMUM STEPSIZE WHICH MEETS STABILITY CRITERION OF THE ADVECTION TERM
 (FOR PURE FINITE-DIFFERENCE OPTION, MIXELM=0) 
 = 0.8138E-01(WHEN MIN. R.F.=1)  AT K=   3, I=   2, J=  32


 TOTAL NUMBER OF POINT SOURCES/SINKS PRESENT IN THE FLOW MODEL =   240

 MAXIMUM STEPSIZE WHICH MEETS STABILITY CRITERION OF THE SINK & SOURCE TERM
 = 0.1000E+31(WHEN MIN. R.F.=1)  AT K=   0, I=   0, J=   0

 MAXIMUM STEPSIZE WHICH MEETS STABILITY CRITERION OF THE DISPERSION TERM
 = 0.5605E-02(WHEN MIN. R.F.=1)  AT K=   3, I=   2, J=  32
     1 CALLS TO GCG PACKAGE FOR TRANSPORT TIME STEP   7 IN FLOW TIME STEP  66 STRESS PERIOD   2
    12 TOTAL ITERATIONS
 
 SOLVING FOR HEAD 
 FLOW MODEL IS TRANSIENT
 FLOW MODEL CONTAINS CONSTANT-HEAD CELLS


 MAXIMUM STEPSIZE DURING WHICH ANY PARTICLE CANNOT MOVE MORE THAN ONE CELL
 = 0.1187    (WHEN MIN. R.F.=1)  AT K=   3, I=   2, J=  33

 MAXIMUM STEPSIZE WHICH MEETS STABILITY CRITERION OF THE ADVECTION TERM
 (FOR PURE FINITE-DIFFERENCE OPTION, MIXELM=0) 
 = 0.8138E-01(WHEN MIN. R.F.=1)  AT K=   3, I=   2, J=  32


 TOTAL NUMBER OF POINT SOURCES/SINKS PRESENT IN THE FLOW MODEL =   240

 MAXIMUM STEPSIZE WHICH MEETS STABILITY CRITERION OF THE SINK & SOURCE TERM
 = 0.1000E+31(WHEN MIN. R.F.=1)  AT K=   0, I=   0, J=   0

 MAXIMUM STEPSIZE WHICH MEETS STABILITY CRITERION OF THE DISPERSION TERM
 = 0.5605E-02(WHEN MIN. R.F.=1)  AT K=   3, I=   2, J=  32
     1 CALLS TO GCG PACKAGE FOR TRANSPORT TIME STEP   8 IN FLOW TIME STEP  66 STRESS PERIOD   2
    12 TOTAL ITERATIONS
 
 SOLVING FOR HEAD 
 FLOW MODEL IS TRANSIENT
 FLOW MODEL CONTAINS CONSTANT-HEAD CELLS


 MAXIMUM STEPSIZE DURING WHICH ANY PARTICLE CANNOT MOVE MORE THAN ONE CELL
 = 0.1187    (WHEN MIN. R.F.=1)  AT K=   3, I=   2, J=  33

 MAXIMUM STEPSIZE WHICH MEETS STABILITY CRITERION OF THE ADVECTION TERM
 (FOR PURE FINITE-DIFFERENCE OPTION, MIXELM=0) 
 = 0.8138E-01(WHEN MIN. R.F.=1)  AT K=   3, I=   2, J=  32


 TOTAL NUMBER OF POINT SOURCES/SINKS PRESENT IN THE FLOW MODEL =   240

 MAXIMUM STEPSIZE WHICH MEETS STABILITY CRITERION OF THE SINK & SOURCE TERM
 = 0.1000E+31(WHEN MIN. R.F.=1)  AT K=   0, I=   0, J=   0

 MAXIMUM STEPSIZE WHICH MEETS STABILITY CRITERION OF THE DISPERSION TERM
 = 0.5605E-02(WHEN MIN. R.F.=1)  AT K=   3, I=   2, J=  32
     1 CALLS TO GCG PACKAGE FOR TRANSPORT TIME STEP   9 IN FLOW TIME STEP  66 STRESS PERIOD   2
    12 TOTAL ITERATIONS
 
 SOLVING FOR HEAD 
 FLOW MODEL IS TRANSIENT
 FLOW MODEL CONTAINS CONSTANT-HEAD CELLS


 MAXIMUM STEPSIZE DURING WHICH ANY PARTICLE CANNOT MOVE MORE THAN ONE CELL
 = 0.1187    (WHEN MIN. R.F.=1)  AT K=   3, I=   2, J=  33

 MAXIMUM STEPSIZE WHICH MEETS STABILITY CRITERION OF THE ADVECTION TERM
 (FOR PURE FINITE-DIFFERENCE OPTION, MIXELM=0) 
 = 0.8138E-01(WHEN MIN. R.F.=1)  AT K=   3, I=   2, J=  32


 TOTAL NUMBER OF POINT SOURCES/SINKS PRESENT IN THE FLOW MODEL =   240

 MAXIMUM STEPSIZE WHICH MEETS STABILITY CRITERION OF THE SINK & SOURCE TERM
 = 0.1000E+31(WHEN MIN. R.F.=1)  AT K=   0, I=   0, J=   0

 MAXIMUM STEPSIZE WHICH MEETS STABILITY CRITERION OF THE DISPERSION TERM
 = 0.5605E-02(WHEN MIN. R.F.=1)  AT K=   3, I=   2, J=  32
     1 CALLS TO GCG PACKAGE FOR TRANSPORT TIME STEP  10 IN FLOW TIME STEP  66 STRESS PERIOD   2
    12 TOTAL ITERATIONS



 >>>>>>>>>>>>>>>>>>>>>>>>>>>>>>>>>>>>>>>>>>>>>>>>>>>>>>>FOR COMPONENT NO. 01<<<<<<<<<<<<<<<<<<<<<<<<<<<<<<<<<<<<<<<<<<<<<<<<<<<<<<<


                                            -------------------------------------------
                                                      TRANSPORT STEP NO.   10
                                            -------------------------------------------

 TOTAL ELAPSED TIME SINCE BEGINNING OF SIMULATION =   66.89052    D   
 .....................................................................

                     CUMULATIVE MASS BUDGETS AT END OF TRANSPORT STEP   10, TIME STEP   66, STRESS PERIOD    2
                     ------------------------------------------------------------------------------------------

                                                             IN                           OUT
                                                      ----------------             ----------------
                               CONSTANT CONCENTRATION:    10513.68                   -5826.721    
                                        CONSTANT HEAD:    0.000000                    0.000000    
                               MASS STOR (FLOW MODEL):   0.1286502E-01              -0.3380999E-02
                                MASS STORAGE (SOLUTE):    6.444065                   -4693.416    
                            ---------------------------------------------------------------------------
                                              [TOTAL]:    10520.14     KG            -10520.14     KG  

                                                          NET (IN - OUT):  -0.3038842E-02
                                                   DISCREPANCY (PERCENT):  -0.2888595E-04
 
 SOLVING FOR HEAD 
 FLOW MODEL IS TRANSIENT
 FLOW MODEL CONTAINS CONSTANT-HEAD CELLS


 MAXIMUM STEPSIZE DURING WHICH ANY PARTICLE CANNOT MOVE MORE THAN ONE CELL
 = 0.1187    (WHEN MIN. R.F.=1)  AT K=   3, I=   2, J=  33

 MAXIMUM STEPSIZE WHICH MEETS STABILITY CRITERION OF THE ADVECTION TERM
 (FOR PURE FINITE-DIFFERENCE OPTION, MIXELM=0) 
 = 0.8138E-01(WHEN MIN. R.F.=1)  AT K=   3, I=   2, J=  32


 TOTAL NUMBER OF POINT SOURCES/SINKS PRESENT IN THE FLOW MODEL =   240

 MAXIMUM STEPSIZE WHICH MEETS STABILITY CRITERION OF THE SINK & SOURCE TERM
 = 0.1000E+31(WHEN MIN. R.F.=1)  AT K=   0, I=   0, J=   0

 MAXIMUM STEPSIZE WHICH MEETS STABILITY CRITERION OF THE DISPERSION TERM
 = 0.5605E-02(WHEN MIN. R.F.=1)  AT K=   3, I=   2, J=  32
     1 CALLS TO GCG PACKAGE FOR TRANSPORT TIME STEP  11 IN FLOW TIME STEP  66 STRESS PERIOD   2
    12 TOTAL ITERATIONS
 
 SOLVING FOR HEAD 
 FLOW MODEL IS TRANSIENT
 FLOW MODEL CONTAINS CONSTANT-HEAD CELLS


 MAXIMUM STEPSIZE DURING WHICH ANY PARTICLE CANNOT MOVE MORE THAN ONE CELL
 = 0.1187    (WHEN MIN. R.F.=1)  AT K=   3, I=   2, J=  33

 MAXIMUM STEPSIZE WHICH MEETS STABILITY CRITERION OF THE ADVECTION TERM
 (FOR PURE FINITE-DIFFERENCE OPTION, MIXELM=0) 
 = 0.8138E-01(WHEN MIN. R.F.=1)  AT K=   3, I=   2, J=  32


 TOTAL NUMBER OF POINT SOURCES/SINKS PRESENT IN THE FLOW MODEL =   240

 MAXIMUM STEPSIZE WHICH MEETS STABILITY CRITERION OF THE SINK & SOURCE TERM
 = 0.1000E+31(WHEN MIN. R.F.=1)  AT K=   0, I=   0, J=   0

 MAXIMUM STEPSIZE WHICH MEETS STABILITY CRITERION OF THE DISPERSION TERM
 = 0.5605E-02(WHEN MIN. R.F.=1)  AT K=   3, I=   2, J=  32
     1 CALLS TO GCG PACKAGE FOR TRANSPORT TIME STEP  12 IN FLOW TIME STEP  66 STRESS PERIOD   2
     6 TOTAL ITERATIONS
  MAXIMUM CONCENTRATION CHANGES FOR EACH ITERATION:
  MAX. CHANGE LAYER,ROW,COL MAX. CHANGE LAYER,ROW,COL MAX. CHANGE LAYER,ROW,COL MAX. CHANGE LAYER,ROW,COL MAX. CHANGE LAYER,ROW,COL
 ------------------------------------------------------------------------------------------------------------------------------------
   0.1333E-03 ( 14,  2, 57)  0.8760E-05 (  6,  2, 60)  0.1292E-05 (  5,  2, 57)  0.3185E-06 (  7,  2, 60)  0.1449E-06 (  4,  2, 33)
   0.5715E-07 (  3,  2, 32)


                                          ================================================
                                                         FROM TIME =   67.000     TO    68.000    

 
 SOLVING FOR HEAD 
 FLOW MODEL IS TRANSIENT
 FLOW MODEL CONTAINS CONSTANT-HEAD CELLS


 MAXIMUM STEPSIZE DURING WHICH ANY PARTICLE CANNOT MOVE MORE THAN ONE CELL
 = 0.1187    (WHEN MIN. R.F.=1)  AT K=   3, I=   2, J=  33

 MAXIMUM STEPSIZE WHICH MEETS STABILITY CRITERION OF THE ADVECTION TERM
 (FOR PURE FINITE-DIFFERENCE OPTION, MIXELM=0) 
 = 0.8138E-01(WHEN MIN. R.F.=1)  AT K=   3, I=   2, J=  32


 TOTAL NUMBER OF POINT SOURCES/SINKS PRESENT IN THE FLOW MODEL =   240

 MAXIMUM STEPSIZE WHICH MEETS STABILITY CRITERION OF THE SINK & SOURCE TERM
 = 0.1000E+31(WHEN MIN. R.F.=1)  AT K=   0, I=   0, J=   0

 MAXIMUM STEPSIZE WHICH MEETS STABILITY CRITERION OF THE DISPERSION TERM
 = 0.5605E-02(WHEN MIN. R.F.=1)  AT K=   3, I=   2, J=  32


     1 CALLS TO GCG PACKAGE FOR TRANSPORT TIME STEP   1 IN FLOW TIME STEP  67 STRESS PERIOD   2
    12 TOTAL ITERATIONS

 NO OUTPUT CONTROL FOR STRESS PERIOD    2   TIME STEP  67
 
 SOLVING FOR HEAD 
 FLOW MODEL IS TRANSIENT
 FLOW MODEL CONTAINS CONSTANT-HEAD CELLS


 MAXIMUM STEPSIZE DURING WHICH ANY PARTICLE CANNOT MOVE MORE THAN ONE CELL
 = 0.1187    (WHEN MIN. R.F.=1)  AT K=   3, I=   2, J=  33

 MAXIMUM STEPSIZE WHICH MEETS STABILITY CRITERION OF THE ADVECTION TERM
 (FOR PURE FINITE-DIFFERENCE OPTION, MIXELM=0) 
 = 0.8138E-01(WHEN MIN. R.F.=1)  AT K=   3, I=   2, J=  32


 TOTAL NUMBER OF POINT SOURCES/SINKS PRESENT IN THE FLOW MODEL =   240

 MAXIMUM STEPSIZE WHICH MEETS STABILITY CRITERION OF THE SINK & SOURCE TERM
 = 0.1000E+31(WHEN MIN. R.F.=1)  AT K=   0, I=   0, J=   0

 MAXIMUM STEPSIZE WHICH MEETS STABILITY CRITERION OF THE DISPERSION TERM
 = 0.5605E-02(WHEN MIN. R.F.=1)  AT K=   3, I=   2, J=  32
     1 CALLS TO GCG PACKAGE FOR TRANSPORT TIME STEP   2 IN FLOW TIME STEP  67 STRESS PERIOD   2
    12 TOTAL ITERATIONS
 
 SOLVING FOR HEAD 
 FLOW MODEL IS TRANSIENT
 FLOW MODEL CONTAINS CONSTANT-HEAD CELLS


 MAXIMUM STEPSIZE DURING WHICH ANY PARTICLE CANNOT MOVE MORE THAN ONE CELL
 = 0.1187    (WHEN MIN. R.F.=1)  AT K=   3, I=   2, J=  33

 MAXIMUM STEPSIZE WHICH MEETS STABILITY CRITERION OF THE ADVECTION TERM
 (FOR PURE FINITE-DIFFERENCE OPTION, MIXELM=0) 
 = 0.8138E-01(WHEN MIN. R.F.=1)  AT K=   3, I=   2, J=  32


 TOTAL NUMBER OF POINT SOURCES/SINKS PRESENT IN THE FLOW MODEL =   240

 MAXIMUM STEPSIZE WHICH MEETS STABILITY CRITERION OF THE SINK & SOURCE TERM
 = 0.1000E+31(WHEN MIN. R.F.=1)  AT K=   0, I=   0, J=   0

 MAXIMUM STEPSIZE WHICH MEETS STABILITY CRITERION OF THE DISPERSION TERM
 = 0.5605E-02(WHEN MIN. R.F.=1)  AT K=   3, I=   2, J=  32
     1 CALLS TO GCG PACKAGE FOR TRANSPORT TIME STEP   3 IN FLOW TIME STEP  67 STRESS PERIOD   2
    12 TOTAL ITERATIONS
 
 SOLVING FOR HEAD 
 FLOW MODEL IS TRANSIENT
 FLOW MODEL CONTAINS CONSTANT-HEAD CELLS


 MAXIMUM STEPSIZE DURING WHICH ANY PARTICLE CANNOT MOVE MORE THAN ONE CELL
 = 0.1187    (WHEN MIN. R.F.=1)  AT K=   3, I=   2, J=  33

 MAXIMUM STEPSIZE WHICH MEETS STABILITY CRITERION OF THE ADVECTION TERM
 (FOR PURE FINITE-DIFFERENCE OPTION, MIXELM=0) 
 = 0.8138E-01(WHEN MIN. R.F.=1)  AT K=   3, I=   2, J=  32


 TOTAL NUMBER OF POINT SOURCES/SINKS PRESENT IN THE FLOW MODEL =   240

 MAXIMUM STEPSIZE WHICH MEETS STABILITY CRITERION OF THE SINK & SOURCE TERM
 = 0.1000E+31(WHEN MIN. R.F.=1)  AT K=   0, I=   0, J=   0

 MAXIMUM STEPSIZE WHICH MEETS STABILITY CRITERION OF THE DISPERSION TERM
 = 0.5605E-02(WHEN MIN. R.F.=1)  AT K=   3, I=   2, J=  32
     1 CALLS TO GCG PACKAGE FOR TRANSPORT TIME STEP   4 IN FLOW TIME STEP  67 STRESS PERIOD   2
    12 TOTAL ITERATIONS
 
 SOLVING FOR HEAD 
 FLOW MODEL IS TRANSIENT
 FLOW MODEL CONTAINS CONSTANT-HEAD CELLS


 MAXIMUM STEPSIZE DURING WHICH ANY PARTICLE CANNOT MOVE MORE THAN ONE CELL
 = 0.1187    (WHEN MIN. R.F.=1)  AT K=   3, I=   2, J=  33

 MAXIMUM STEPSIZE WHICH MEETS STABILITY CRITERION OF THE ADVECTION TERM
 (FOR PURE FINITE-DIFFERENCE OPTION, MIXELM=0) 
 = 0.8138E-01(WHEN MIN. R.F.=1)  AT K=   3, I=   2, J=  32


 TOTAL NUMBER OF POINT SOURCES/SINKS PRESENT IN THE FLOW MODEL =   240

 MAXIMUM STEPSIZE WHICH MEETS STABILITY CRITERION OF THE SINK & SOURCE TERM
 = 0.1000E+31(WHEN MIN. R.F.=1)  AT K=   0, I=   0, J=   0

 MAXIMUM STEPSIZE WHICH MEETS STABILITY CRITERION OF THE DISPERSION TERM
 = 0.5605E-02(WHEN MIN. R.F.=1)  AT K=   3, I=   2, J=  32
     1 CALLS TO GCG PACKAGE FOR TRANSPORT TIME STEP   5 IN FLOW TIME STEP  67 STRESS PERIOD   2
    12 TOTAL ITERATIONS
 
 SOLVING FOR HEAD 
 FLOW MODEL IS TRANSIENT
 FLOW MODEL CONTAINS CONSTANT-HEAD CELLS


 MAXIMUM STEPSIZE DURING WHICH ANY PARTICLE CANNOT MOVE MORE THAN ONE CELL
 = 0.1187    (WHEN MIN. R.F.=1)  AT K=   3, I=   2, J=  33

 MAXIMUM STEPSIZE WHICH MEETS STABILITY CRITERION OF THE ADVECTION TERM
 (FOR PURE FINITE-DIFFERENCE OPTION, MIXELM=0) 
 = 0.8138E-01(WHEN MIN. R.F.=1)  AT K=   3, I=   2, J=  32


 TOTAL NUMBER OF POINT SOURCES/SINKS PRESENT IN THE FLOW MODEL =   240

 MAXIMUM STEPSIZE WHICH MEETS STABILITY CRITERION OF THE SINK & SOURCE TERM
 = 0.1000E+31(WHEN MIN. R.F.=1)  AT K=   0, I=   0, J=   0

 MAXIMUM STEPSIZE WHICH MEETS STABILITY CRITERION OF THE DISPERSION TERM
 = 0.5605E-02(WHEN MIN. R.F.=1)  AT K=   3, I=   2, J=  32
     1 CALLS TO GCG PACKAGE FOR TRANSPORT TIME STEP   6 IN FLOW TIME STEP  67 STRESS PERIOD   2
    12 TOTAL ITERATIONS
 
 SOLVING FOR HEAD 
 FLOW MODEL IS TRANSIENT
 FLOW MODEL CONTAINS CONSTANT-HEAD CELLS


 MAXIMUM STEPSIZE DURING WHICH ANY PARTICLE CANNOT MOVE MORE THAN ONE CELL
 = 0.1187    (WHEN MIN. R.F.=1)  AT K=   3, I=   2, J=  33

 MAXIMUM STEPSIZE WHICH MEETS STABILITY CRITERION OF THE ADVECTION TERM
 (FOR PURE FINITE-DIFFERENCE OPTION, MIXELM=0) 
 = 0.8138E-01(WHEN MIN. R.F.=1)  AT K=   3, I=   2, J=  32


 TOTAL NUMBER OF POINT SOURCES/SINKS PRESENT IN THE FLOW MODEL =   240

 MAXIMUM STEPSIZE WHICH MEETS STABILITY CRITERION OF THE SINK & SOURCE TERM
 = 0.1000E+31(WHEN MIN. R.F.=1)  AT K=   0, I=   0, J=   0

 MAXIMUM STEPSIZE WHICH MEETS STABILITY CRITERION OF THE DISPERSION TERM
 = 0.5605E-02(WHEN MIN. R.F.=1)  AT K=   3, I=   2, J=  32
     1 CALLS TO GCG PACKAGE FOR TRANSPORT TIME STEP   7 IN FLOW TIME STEP  67 STRESS PERIOD   2
    12 TOTAL ITERATIONS
 
 SOLVING FOR HEAD 
 FLOW MODEL IS TRANSIENT
 FLOW MODEL CONTAINS CONSTANT-HEAD CELLS


 MAXIMUM STEPSIZE DURING WHICH ANY PARTICLE CANNOT MOVE MORE THAN ONE CELL
 = 0.1187    (WHEN MIN. R.F.=1)  AT K=   3, I=   2, J=  33

 MAXIMUM STEPSIZE WHICH MEETS STABILITY CRITERION OF THE ADVECTION TERM
 (FOR PURE FINITE-DIFFERENCE OPTION, MIXELM=0) 
 = 0.8138E-01(WHEN MIN. R.F.=1)  AT K=   3, I=   2, J=  32


 TOTAL NUMBER OF POINT SOURCES/SINKS PRESENT IN THE FLOW MODEL =   240

 MAXIMUM STEPSIZE WHICH MEETS STABILITY CRITERION OF THE SINK & SOURCE TERM
 = 0.1000E+31(WHEN MIN. R.F.=1)  AT K=   0, I=   0, J=   0

 MAXIMUM STEPSIZE WHICH MEETS STABILITY CRITERION OF THE DISPERSION TERM
 = 0.5605E-02(WHEN MIN. R.F.=1)  AT K=   3, I=   2, J=  32
     1 CALLS TO GCG PACKAGE FOR TRANSPORT TIME STEP   8 IN FLOW TIME STEP  67 STRESS PERIOD   2
    12 TOTAL ITERATIONS
 
 SOLVING FOR HEAD 
 FLOW MODEL IS TRANSIENT
 FLOW MODEL CONTAINS CONSTANT-HEAD CELLS


 MAXIMUM STEPSIZE DURING WHICH ANY PARTICLE CANNOT MOVE MORE THAN ONE CELL
 = 0.1187    (WHEN MIN. R.F.=1)  AT K=   3, I=   2, J=  33

 MAXIMUM STEPSIZE WHICH MEETS STABILITY CRITERION OF THE ADVECTION TERM
 (FOR PURE FINITE-DIFFERENCE OPTION, MIXELM=0) 
 = 0.8138E-01(WHEN MIN. R.F.=1)  AT K=   3, I=   2, J=  32


 TOTAL NUMBER OF POINT SOURCES/SINKS PRESENT IN THE FLOW MODEL =   240

 MAXIMUM STEPSIZE WHICH MEETS STABILITY CRITERION OF THE SINK & SOURCE TERM
 = 0.1000E+31(WHEN MIN. R.F.=1)  AT K=   0, I=   0, J=   0

 MAXIMUM STEPSIZE WHICH MEETS STABILITY CRITERION OF THE DISPERSION TERM
 = 0.5605E-02(WHEN MIN. R.F.=1)  AT K=   3, I=   2, J=  32
     1 CALLS TO GCG PACKAGE FOR TRANSPORT TIME STEP   9 IN FLOW TIME STEP  67 STRESS PERIOD   2
    12 TOTAL ITERATIONS
 
 SOLVING FOR HEAD 
 FLOW MODEL IS TRANSIENT
 FLOW MODEL CONTAINS CONSTANT-HEAD CELLS


 MAXIMUM STEPSIZE DURING WHICH ANY PARTICLE CANNOT MOVE MORE THAN ONE CELL
 = 0.1187    (WHEN MIN. R.F.=1)  AT K=   3, I=   2, J=  33

 MAXIMUM STEPSIZE WHICH MEETS STABILITY CRITERION OF THE ADVECTION TERM
 (FOR PURE FINITE-DIFFERENCE OPTION, MIXELM=0) 
 = 0.8138E-01(WHEN MIN. R.F.=1)  AT K=   3, I=   2, J=  32


 TOTAL NUMBER OF POINT SOURCES/SINKS PRESENT IN THE FLOW MODEL =   240

 MAXIMUM STEPSIZE WHICH MEETS STABILITY CRITERION OF THE SINK & SOURCE TERM
 = 0.1000E+31(WHEN MIN. R.F.=1)  AT K=   0, I=   0, J=   0

 MAXIMUM STEPSIZE WHICH MEETS STABILITY CRITERION OF THE DISPERSION TERM
 = 0.5605E-02(WHEN MIN. R.F.=1)  AT K=   3, I=   2, J=  32
     1 CALLS TO GCG PACKAGE FOR TRANSPORT TIME STEP  10 IN FLOW TIME STEP  67 STRESS PERIOD   2
    12 TOTAL ITERATIONS



 >>>>>>>>>>>>>>>>>>>>>>>>>>>>>>>>>>>>>>>>>>>>>>>>>>>>>>>FOR COMPONENT NO. 01<<<<<<<<<<<<<<<<<<<<<<<<<<<<<<<<<<<<<<<<<<<<<<<<<<<<<<<


                                            -------------------------------------------
                                                      TRANSPORT STEP NO.   10
                                            -------------------------------------------

 TOTAL ELAPSED TIME SINCE BEGINNING OF SIMULATION =   67.89050    D   
 .....................................................................

                     CUMULATIVE MASS BUDGETS AT END OF TRANSPORT STEP   10, TIME STEP   67, STRESS PERIOD    2
                     ------------------------------------------------------------------------------------------

                                                             IN                           OUT
                                                      ----------------             ----------------
                               CONSTANT CONCENTRATION:    10621.27                   -5919.462    
                                        CONSTANT HEAD:    0.000000                    0.000000    
                               MASS STOR (FLOW MODEL):   0.1288089E-01              -0.3384664E-02
                                MASS STORAGE (SOLUTE):    6.752503                   -4708.571    
                            ---------------------------------------------------------------------------
                                              [TOTAL]:    10628.03     KG            -10628.04     KG  

                                                          NET (IN - OUT):  -0.3054543E-02
                                                   DISCREPANCY (PERCENT):  -0.2874043E-04
 
 SOLVING FOR HEAD 
 FLOW MODEL IS TRANSIENT
 FLOW MODEL CONTAINS CONSTANT-HEAD CELLS


 MAXIMUM STEPSIZE DURING WHICH ANY PARTICLE CANNOT MOVE MORE THAN ONE CELL
 = 0.1187    (WHEN MIN. R.F.=1)  AT K=   3, I=   2, J=  33

 MAXIMUM STEPSIZE WHICH MEETS STABILITY CRITERION OF THE ADVECTION TERM
 (FOR PURE FINITE-DIFFERENCE OPTION, MIXELM=0) 
 = 0.8138E-01(WHEN MIN. R.F.=1)  AT K=   3, I=   2, J=  32


 TOTAL NUMBER OF POINT SOURCES/SINKS PRESENT IN THE FLOW MODEL =   240

 MAXIMUM STEPSIZE WHICH MEETS STABILITY CRITERION OF THE SINK & SOURCE TERM
 = 0.1000E+31(WHEN MIN. R.F.=1)  AT K=   0, I=   0, J=   0

 MAXIMUM STEPSIZE WHICH MEETS STABILITY CRITERION OF THE DISPERSION TERM
 = 0.5605E-02(WHEN MIN. R.F.=1)  AT K=   3, I=   2, J=  32
     1 CALLS TO GCG PACKAGE FOR TRANSPORT TIME STEP  11 IN FLOW TIME STEP  67 STRESS PERIOD   2
    12 TOTAL ITERATIONS
 
 SOLVING FOR HEAD 
 FLOW MODEL IS TRANSIENT
 FLOW MODEL CONTAINS CONSTANT-HEAD CELLS


 MAXIMUM STEPSIZE DURING WHICH ANY PARTICLE CANNOT MOVE MORE THAN ONE CELL
 = 0.1187    (WHEN MIN. R.F.=1)  AT K=   3, I=   2, J=  33

 MAXIMUM STEPSIZE WHICH MEETS STABILITY CRITERION OF THE ADVECTION TERM
 (FOR PURE FINITE-DIFFERENCE OPTION, MIXELM=0) 
 = 0.8138E-01(WHEN MIN. R.F.=1)  AT K=   3, I=   2, J=  32


 TOTAL NUMBER OF POINT SOURCES/SINKS PRESENT IN THE FLOW MODEL =   240

 MAXIMUM STEPSIZE WHICH MEETS STABILITY CRITERION OF THE SINK & SOURCE TERM
 = 0.1000E+31(WHEN MIN. R.F.=1)  AT K=   0, I=   0, J=   0

 MAXIMUM STEPSIZE WHICH MEETS STABILITY CRITERION OF THE DISPERSION TERM
 = 0.5605E-02(WHEN MIN. R.F.=1)  AT K=   3, I=   2, J=  32
     1 CALLS TO GCG PACKAGE FOR TRANSPORT TIME STEP  12 IN FLOW TIME STEP  67 STRESS PERIOD   2
     6 TOTAL ITERATIONS
  MAXIMUM CONCENTRATION CHANGES FOR EACH ITERATION:
  MAX. CHANGE LAYER,ROW,COL MAX. CHANGE LAYER,ROW,COL MAX. CHANGE LAYER,ROW,COL MAX. CHANGE LAYER,ROW,COL MAX. CHANGE LAYER,ROW,COL
 ------------------------------------------------------------------------------------------------------------------------------------
   0.1311E-03 ( 14,  2, 57)  0.8484E-05 (  6,  2, 60)  0.1252E-05 (  5,  2, 57)  0.3077E-06 (  7,  2, 60)  0.1403E-06 (  4,  2, 33)
   0.5529E-07 (  3,  2, 32)


                                          ================================================
                                                         FROM TIME =   68.000     TO    69.000    

 
 SOLVING FOR HEAD 
 FLOW MODEL IS TRANSIENT
 FLOW MODEL CONTAINS CONSTANT-HEAD CELLS


 MAXIMUM STEPSIZE DURING WHICH ANY PARTICLE CANNOT MOVE MORE THAN ONE CELL
 = 0.1187    (WHEN MIN. R.F.=1)  AT K=   3, I=   2, J=  33

 MAXIMUM STEPSIZE WHICH MEETS STABILITY CRITERION OF THE ADVECTION TERM
 (FOR PURE FINITE-DIFFERENCE OPTION, MIXELM=0) 
 = 0.8138E-01(WHEN MIN. R.F.=1)  AT K=   3, I=   2, J=  32


 TOTAL NUMBER OF POINT SOURCES/SINKS PRESENT IN THE FLOW MODEL =   240

 MAXIMUM STEPSIZE WHICH MEETS STABILITY CRITERION OF THE SINK & SOURCE TERM
 = 0.1000E+31(WHEN MIN. R.F.=1)  AT K=   0, I=   0, J=   0

 MAXIMUM STEPSIZE WHICH MEETS STABILITY CRITERION OF THE DISPERSION TERM
 = 0.5605E-02(WHEN MIN. R.F.=1)  AT K=   3, I=   2, J=  32


     1 CALLS TO GCG PACKAGE FOR TRANSPORT TIME STEP   1 IN FLOW TIME STEP  68 STRESS PERIOD   2
    12 TOTAL ITERATIONS

 NO OUTPUT CONTROL FOR STRESS PERIOD    2   TIME STEP  68
 
 SOLVING FOR HEAD 
 FLOW MODEL IS TRANSIENT
 FLOW MODEL CONTAINS CONSTANT-HEAD CELLS


 MAXIMUM STEPSIZE DURING WHICH ANY PARTICLE CANNOT MOVE MORE THAN ONE CELL
 = 0.1187    (WHEN MIN. R.F.=1)  AT K=   3, I=   2, J=  33

 MAXIMUM STEPSIZE WHICH MEETS STABILITY CRITERION OF THE ADVECTION TERM
 (FOR PURE FINITE-DIFFERENCE OPTION, MIXELM=0) 
 = 0.8138E-01(WHEN MIN. R.F.=1)  AT K=   3, I=   2, J=  32


 TOTAL NUMBER OF POINT SOURCES/SINKS PRESENT IN THE FLOW MODEL =   240

 MAXIMUM STEPSIZE WHICH MEETS STABILITY CRITERION OF THE SINK & SOURCE TERM
 = 0.1000E+31(WHEN MIN. R.F.=1)  AT K=   0, I=   0, J=   0

 MAXIMUM STEPSIZE WHICH MEETS STABILITY CRITERION OF THE DISPERSION TERM
 = 0.5605E-02(WHEN MIN. R.F.=1)  AT K=   3, I=   2, J=  32
     1 CALLS TO GCG PACKAGE FOR TRANSPORT TIME STEP   2 IN FLOW TIME STEP  68 STRESS PERIOD   2
    12 TOTAL ITERATIONS
 
 SOLVING FOR HEAD 
 FLOW MODEL IS TRANSIENT
 FLOW MODEL CONTAINS CONSTANT-HEAD CELLS


 MAXIMUM STEPSIZE DURING WHICH ANY PARTICLE CANNOT MOVE MORE THAN ONE CELL
 = 0.1187    (WHEN MIN. R.F.=1)  AT K=   3, I=   2, J=  33

 MAXIMUM STEPSIZE WHICH MEETS STABILITY CRITERION OF THE ADVECTION TERM
 (FOR PURE FINITE-DIFFERENCE OPTION, MIXELM=0) 
 = 0.8137E-01(WHEN MIN. R.F.=1)  AT K=   3, I=   2, J=  32


 TOTAL NUMBER OF POINT SOURCES/SINKS PRESENT IN THE FLOW MODEL =   240

 MAXIMUM STEPSIZE WHICH MEETS STABILITY CRITERION OF THE SINK & SOURCE TERM
 = 0.1000E+31(WHEN MIN. R.F.=1)  AT K=   0, I=   0, J=   0

 MAXIMUM STEPSIZE WHICH MEETS STABILITY CRITERION OF THE DISPERSION TERM
 = 0.5605E-02(WHEN MIN. R.F.=1)  AT K=   3, I=   2, J=  32
     1 CALLS TO GCG PACKAGE FOR TRANSPORT TIME STEP   3 IN FLOW TIME STEP  68 STRESS PERIOD   2
    12 TOTAL ITERATIONS
 
 SOLVING FOR HEAD 
 FLOW MODEL IS TRANSIENT
 FLOW MODEL CONTAINS CONSTANT-HEAD CELLS


 MAXIMUM STEPSIZE DURING WHICH ANY PARTICLE CANNOT MOVE MORE THAN ONE CELL
 = 0.1187    (WHEN MIN. R.F.=1)  AT K=   3, I=   2, J=  33

 MAXIMUM STEPSIZE WHICH MEETS STABILITY CRITERION OF THE ADVECTION TERM
 (FOR PURE FINITE-DIFFERENCE OPTION, MIXELM=0) 
 = 0.8137E-01(WHEN MIN. R.F.=1)  AT K=   3, I=   2, J=  32


 TOTAL NUMBER OF POINT SOURCES/SINKS PRESENT IN THE FLOW MODEL =   240

 MAXIMUM STEPSIZE WHICH MEETS STABILITY CRITERION OF THE SINK & SOURCE TERM
 = 0.1000E+31(WHEN MIN. R.F.=1)  AT K=   0, I=   0, J=   0

 MAXIMUM STEPSIZE WHICH MEETS STABILITY CRITERION OF THE DISPERSION TERM
 = 0.5605E-02(WHEN MIN. R.F.=1)  AT K=   3, I=   2, J=  32
     1 CALLS TO GCG PACKAGE FOR TRANSPORT TIME STEP   4 IN FLOW TIME STEP  68 STRESS PERIOD   2
    12 TOTAL ITERATIONS
 
 SOLVING FOR HEAD 
 FLOW MODEL IS TRANSIENT
 FLOW MODEL CONTAINS CONSTANT-HEAD CELLS


 MAXIMUM STEPSIZE DURING WHICH ANY PARTICLE CANNOT MOVE MORE THAN ONE CELL
 = 0.1187    (WHEN MIN. R.F.=1)  AT K=   3, I=   2, J=  33

 MAXIMUM STEPSIZE WHICH MEETS STABILITY CRITERION OF THE ADVECTION TERM
 (FOR PURE FINITE-DIFFERENCE OPTION, MIXELM=0) 
 = 0.8137E-01(WHEN MIN. R.F.=1)  AT K=   3, I=   2, J=  32


 TOTAL NUMBER OF POINT SOURCES/SINKS PRESENT IN THE FLOW MODEL =   240

 MAXIMUM STEPSIZE WHICH MEETS STABILITY CRITERION OF THE SINK & SOURCE TERM
 = 0.1000E+31(WHEN MIN. R.F.=1)  AT K=   0, I=   0, J=   0

 MAXIMUM STEPSIZE WHICH MEETS STABILITY CRITERION OF THE DISPERSION TERM
 = 0.5605E-02(WHEN MIN. R.F.=1)  AT K=   3, I=   2, J=  32
     1 CALLS TO GCG PACKAGE FOR TRANSPORT TIME STEP   5 IN FLOW TIME STEP  68 STRESS PERIOD   2
    12 TOTAL ITERATIONS
 
 SOLVING FOR HEAD 
 FLOW MODEL IS TRANSIENT
 FLOW MODEL CONTAINS CONSTANT-HEAD CELLS


 MAXIMUM STEPSIZE DURING WHICH ANY PARTICLE CANNOT MOVE MORE THAN ONE CELL
 = 0.1187    (WHEN MIN. R.F.=1)  AT K=   3, I=   2, J=  33

 MAXIMUM STEPSIZE WHICH MEETS STABILITY CRITERION OF THE ADVECTION TERM
 (FOR PURE FINITE-DIFFERENCE OPTION, MIXELM=0) 
 = 0.8137E-01(WHEN MIN. R.F.=1)  AT K=   3, I=   2, J=  32


 TOTAL NUMBER OF POINT SOURCES/SINKS PRESENT IN THE FLOW MODEL =   240

 MAXIMUM STEPSIZE WHICH MEETS STABILITY CRITERION OF THE SINK & SOURCE TERM
 = 0.1000E+31(WHEN MIN. R.F.=1)  AT K=   0, I=   0, J=   0

 MAXIMUM STEPSIZE WHICH MEETS STABILITY CRITERION OF THE DISPERSION TERM
 = 0.5605E-02(WHEN MIN. R.F.=1)  AT K=   3, I=   2, J=  32
     1 CALLS TO GCG PACKAGE FOR TRANSPORT TIME STEP   6 IN FLOW TIME STEP  68 STRESS PERIOD   2
    12 TOTAL ITERATIONS
 
 SOLVING FOR HEAD 
 FLOW MODEL IS TRANSIENT
 FLOW MODEL CONTAINS CONSTANT-HEAD CELLS


 MAXIMUM STEPSIZE DURING WHICH ANY PARTICLE CANNOT MOVE MORE THAN ONE CELL
 = 0.1187    (WHEN MIN. R.F.=1)  AT K=   3, I=   2, J=  33

 MAXIMUM STEPSIZE WHICH MEETS STABILITY CRITERION OF THE ADVECTION TERM
 (FOR PURE FINITE-DIFFERENCE OPTION, MIXELM=0) 
 = 0.8137E-01(WHEN MIN. R.F.=1)  AT K=   3, I=   2, J=  32


 TOTAL NUMBER OF POINT SOURCES/SINKS PRESENT IN THE FLOW MODEL =   240

 MAXIMUM STEPSIZE WHICH MEETS STABILITY CRITERION OF THE SINK & SOURCE TERM
 = 0.1000E+31(WHEN MIN. R.F.=1)  AT K=   0, I=   0, J=   0

 MAXIMUM STEPSIZE WHICH MEETS STABILITY CRITERION OF THE DISPERSION TERM
 = 0.5605E-02(WHEN MIN. R.F.=1)  AT K=   3, I=   2, J=  32
     1 CALLS TO GCG PACKAGE FOR TRANSPORT TIME STEP   7 IN FLOW TIME STEP  68 STRESS PERIOD   2
    12 TOTAL ITERATIONS
 
 SOLVING FOR HEAD 
 FLOW MODEL IS TRANSIENT
 FLOW MODEL CONTAINS CONSTANT-HEAD CELLS


 MAXIMUM STEPSIZE DURING WHICH ANY PARTICLE CANNOT MOVE MORE THAN ONE CELL
 = 0.1187    (WHEN MIN. R.F.=1)  AT K=   3, I=   2, J=  33

 MAXIMUM STEPSIZE WHICH MEETS STABILITY CRITERION OF THE ADVECTION TERM
 (FOR PURE FINITE-DIFFERENCE OPTION, MIXELM=0) 
 = 0.8137E-01(WHEN MIN. R.F.=1)  AT K=   3, I=   2, J=  32


 TOTAL NUMBER OF POINT SOURCES/SINKS PRESENT IN THE FLOW MODEL =   240

 MAXIMUM STEPSIZE WHICH MEETS STABILITY CRITERION OF THE SINK & SOURCE TERM
 = 0.1000E+31(WHEN MIN. R.F.=1)  AT K=   0, I=   0, J=   0

 MAXIMUM STEPSIZE WHICH MEETS STABILITY CRITERION OF THE DISPERSION TERM
 = 0.5605E-02(WHEN MIN. R.F.=1)  AT K=   3, I=   2, J=  32
     1 CALLS TO GCG PACKAGE FOR TRANSPORT TIME STEP   8 IN FLOW TIME STEP  68 STRESS PERIOD   2
    12 TOTAL ITERATIONS
 
 SOLVING FOR HEAD 
 FLOW MODEL IS TRANSIENT
 FLOW MODEL CONTAINS CONSTANT-HEAD CELLS


 MAXIMUM STEPSIZE DURING WHICH ANY PARTICLE CANNOT MOVE MORE THAN ONE CELL
 = 0.1187    (WHEN MIN. R.F.=1)  AT K=   3, I=   2, J=  33

 MAXIMUM STEPSIZE WHICH MEETS STABILITY CRITERION OF THE ADVECTION TERM
 (FOR PURE FINITE-DIFFERENCE OPTION, MIXELM=0) 
 = 0.8137E-01(WHEN MIN. R.F.=1)  AT K=   3, I=   2, J=  32


 TOTAL NUMBER OF POINT SOURCES/SINKS PRESENT IN THE FLOW MODEL =   240

 MAXIMUM STEPSIZE WHICH MEETS STABILITY CRITERION OF THE SINK & SOURCE TERM
 = 0.1000E+31(WHEN MIN. R.F.=1)  AT K=   0, I=   0, J=   0

 MAXIMUM STEPSIZE WHICH MEETS STABILITY CRITERION OF THE DISPERSION TERM
 = 0.5605E-02(WHEN MIN. R.F.=1)  AT K=   3, I=   2, J=  32
     1 CALLS TO GCG PACKAGE FOR TRANSPORT TIME STEP   9 IN FLOW TIME STEP  68 STRESS PERIOD   2
    12 TOTAL ITERATIONS
 
 SOLVING FOR HEAD 
 FLOW MODEL IS TRANSIENT
 FLOW MODEL CONTAINS CONSTANT-HEAD CELLS


 MAXIMUM STEPSIZE DURING WHICH ANY PARTICLE CANNOT MOVE MORE THAN ONE CELL
 = 0.1187    (WHEN MIN. R.F.=1)  AT K=   3, I=   2, J=  33

 MAXIMUM STEPSIZE WHICH MEETS STABILITY CRITERION OF THE ADVECTION TERM
 (FOR PURE FINITE-DIFFERENCE OPTION, MIXELM=0) 
 = 0.8137E-01(WHEN MIN. R.F.=1)  AT K=   3, I=   2, J=  32


 TOTAL NUMBER OF POINT SOURCES/SINKS PRESENT IN THE FLOW MODEL =   240

 MAXIMUM STEPSIZE WHICH MEETS STABILITY CRITERION OF THE SINK & SOURCE TERM
 = 0.1000E+31(WHEN MIN. R.F.=1)  AT K=   0, I=   0, J=   0

 MAXIMUM STEPSIZE WHICH MEETS STABILITY CRITERION OF THE DISPERSION TERM
 = 0.5605E-02(WHEN MIN. R.F.=1)  AT K=   3, I=   2, J=  32
     1 CALLS TO GCG PACKAGE FOR TRANSPORT TIME STEP  10 IN FLOW TIME STEP  68 STRESS PERIOD   2
    12 TOTAL ITERATIONS



 >>>>>>>>>>>>>>>>>>>>>>>>>>>>>>>>>>>>>>>>>>>>>>>>>>>>>>>FOR COMPONENT NO. 01<<<<<<<<<<<<<<<<<<<<<<<<<<<<<<<<<<<<<<<<<<<<<<<<<<<<<<<


                                            -------------------------------------------
                                                      TRANSPORT STEP NO.   10
                                            -------------------------------------------

 TOTAL ELAPSED TIME SINCE BEGINNING OF SIMULATION =   68.89049    D   
 .....................................................................

                     CUMULATIVE MASS BUDGETS AT END OF TRANSPORT STEP   10, TIME STEP   68, STRESS PERIOD    2
                     ------------------------------------------------------------------------------------------

                                                             IN                           OUT
                                                      ----------------             ----------------
                               CONSTANT CONCENTRATION:    10728.62                   -6012.223    
                                        CONSTANT HEAD:    0.000000                    0.000000    
                               MASS STOR (FLOW MODEL):   0.1289656E-01              -0.3388209E-02
                                MASS STORAGE (SOLUTE):    7.034071                   -4723.446    
                            ---------------------------------------------------------------------------
                                              [TOTAL]:    10735.67     KG            -10735.67     KG  

                                                          NET (IN - OUT):  -0.3070526E-02
                                                   DISCREPANCY (PERCENT):  -0.2860115E-04
 
 SOLVING FOR HEAD 
 FLOW MODEL IS TRANSIENT
 FLOW MODEL CONTAINS CONSTANT-HEAD CELLS


 MAXIMUM STEPSIZE DURING WHICH ANY PARTICLE CANNOT MOVE MORE THAN ONE CELL
 = 0.1187    (WHEN MIN. R.F.=1)  AT K=   3, I=   2, J=  33

 MAXIMUM STEPSIZE WHICH MEETS STABILITY CRITERION OF THE ADVECTION TERM
 (FOR PURE FINITE-DIFFERENCE OPTION, MIXELM=0) 
 = 0.8137E-01(WHEN MIN. R.F.=1)  AT K=   3, I=   2, J=  32


 TOTAL NUMBER OF POINT SOURCES/SINKS PRESENT IN THE FLOW MODEL =   240

 MAXIMUM STEPSIZE WHICH MEETS STABILITY CRITERION OF THE SINK & SOURCE TERM
 = 0.1000E+31(WHEN MIN. R.F.=1)  AT K=   0, I=   0, J=   0

 MAXIMUM STEPSIZE WHICH MEETS STABILITY CRITERION OF THE DISPERSION TERM
 = 0.5605E-02(WHEN MIN. R.F.=1)  AT K=   3, I=   2, J=  32
     1 CALLS TO GCG PACKAGE FOR TRANSPORT TIME STEP  11 IN FLOW TIME STEP  68 STRESS PERIOD   2
    12 TOTAL ITERATIONS
 
 SOLVING FOR HEAD 
 FLOW MODEL IS TRANSIENT
 FLOW MODEL CONTAINS CONSTANT-HEAD CELLS


 MAXIMUM STEPSIZE DURING WHICH ANY PARTICLE CANNOT MOVE MORE THAN ONE CELL
 = 0.1187    (WHEN MIN. R.F.=1)  AT K=   3, I=   2, J=  33

 MAXIMUM STEPSIZE WHICH MEETS STABILITY CRITERION OF THE ADVECTION TERM
 (FOR PURE FINITE-DIFFERENCE OPTION, MIXELM=0) 
 = 0.8137E-01(WHEN MIN. R.F.=1)  AT K=   3, I=   2, J=  32


 TOTAL NUMBER OF POINT SOURCES/SINKS PRESENT IN THE FLOW MODEL =   240

 MAXIMUM STEPSIZE WHICH MEETS STABILITY CRITERION OF THE SINK & SOURCE TERM
 = 0.1000E+31(WHEN MIN. R.F.=1)  AT K=   0, I=   0, J=   0

 MAXIMUM STEPSIZE WHICH MEETS STABILITY CRITERION OF THE DISPERSION TERM
 = 0.5605E-02(WHEN MIN. R.F.=1)  AT K=   3, I=   2, J=  32
     1 CALLS TO GCG PACKAGE FOR TRANSPORT TIME STEP  12 IN FLOW TIME STEP  68 STRESS PERIOD   2
     6 TOTAL ITERATIONS
  MAXIMUM CONCENTRATION CHANGES FOR EACH ITERATION:
  MAX. CHANGE LAYER,ROW,COL MAX. CHANGE LAYER,ROW,COL MAX. CHANGE LAYER,ROW,COL MAX. CHANGE LAYER,ROW,COL MAX. CHANGE LAYER,ROW,COL
 ------------------------------------------------------------------------------------------------------------------------------------
   0.1288E-03 ( 14,  2, 57)  0.8219E-05 (  6,  2, 60)  0.1214E-05 (  5,  2, 57)  0.2972E-06 (  7,  2, 60)  0.1357E-06 (  4,  2, 33)
   0.5347E-07 (  3,  2, 32)


                                          ================================================
                                                         FROM TIME =   69.000     TO    70.000    

 
 SOLVING FOR HEAD 
 FLOW MODEL IS TRANSIENT
 FLOW MODEL CONTAINS CONSTANT-HEAD CELLS


 MAXIMUM STEPSIZE DURING WHICH ANY PARTICLE CANNOT MOVE MORE THAN ONE CELL
 = 0.1187    (WHEN MIN. R.F.=1)  AT K=   3, I=   2, J=  33

 MAXIMUM STEPSIZE WHICH MEETS STABILITY CRITERION OF THE ADVECTION TERM
 (FOR PURE FINITE-DIFFERENCE OPTION, MIXELM=0) 
 = 0.8137E-01(WHEN MIN. R.F.=1)  AT K=   3, I=   2, J=  32


 TOTAL NUMBER OF POINT SOURCES/SINKS PRESENT IN THE FLOW MODEL =   240

 MAXIMUM STEPSIZE WHICH MEETS STABILITY CRITERION OF THE SINK & SOURCE TERM
 = 0.1000E+31(WHEN MIN. R.F.=1)  AT K=   0, I=   0, J=   0

 MAXIMUM STEPSIZE WHICH MEETS STABILITY CRITERION OF THE DISPERSION TERM
 = 0.5605E-02(WHEN MIN. R.F.=1)  AT K=   3, I=   2, J=  32


     1 CALLS TO GCG PACKAGE FOR TRANSPORT TIME STEP   1 IN FLOW TIME STEP  69 STRESS PERIOD   2
    12 TOTAL ITERATIONS

 NO OUTPUT CONTROL FOR STRESS PERIOD    2   TIME STEP  69
 
 SOLVING FOR HEAD 
 FLOW MODEL IS TRANSIENT
 FLOW MODEL CONTAINS CONSTANT-HEAD CELLS


 MAXIMUM STEPSIZE DURING WHICH ANY PARTICLE CANNOT MOVE MORE THAN ONE CELL
 = 0.1187    (WHEN MIN. R.F.=1)  AT K=   3, I=   2, J=  33

 MAXIMUM STEPSIZE WHICH MEETS STABILITY CRITERION OF THE ADVECTION TERM
 (FOR PURE FINITE-DIFFERENCE OPTION, MIXELM=0) 
 = 0.8137E-01(WHEN MIN. R.F.=1)  AT K=   3, I=   2, J=  32


 TOTAL NUMBER OF POINT SOURCES/SINKS PRESENT IN THE FLOW MODEL =   240

 MAXIMUM STEPSIZE WHICH MEETS STABILITY CRITERION OF THE SINK & SOURCE TERM
 = 0.1000E+31(WHEN MIN. R.F.=1)  AT K=   0, I=   0, J=   0

 MAXIMUM STEPSIZE WHICH MEETS STABILITY CRITERION OF THE DISPERSION TERM
 = 0.5605E-02(WHEN MIN. R.F.=1)  AT K=   3, I=   2, J=  32
     1 CALLS TO GCG PACKAGE FOR TRANSPORT TIME STEP   2 IN FLOW TIME STEP  69 STRESS PERIOD   2
    12 TOTAL ITERATIONS
 
 SOLVING FOR HEAD 
 FLOW MODEL IS TRANSIENT
 FLOW MODEL CONTAINS CONSTANT-HEAD CELLS


 MAXIMUM STEPSIZE DURING WHICH ANY PARTICLE CANNOT MOVE MORE THAN ONE CELL
 = 0.1187    (WHEN MIN. R.F.=1)  AT K=   3, I=   2, J=  33

 MAXIMUM STEPSIZE WHICH MEETS STABILITY CRITERION OF THE ADVECTION TERM
 (FOR PURE FINITE-DIFFERENCE OPTION, MIXELM=0) 
 = 0.8137E-01(WHEN MIN. R.F.=1)  AT K=   3, I=   2, J=  32


 TOTAL NUMBER OF POINT SOURCES/SINKS PRESENT IN THE FLOW MODEL =   240

 MAXIMUM STEPSIZE WHICH MEETS STABILITY CRITERION OF THE SINK & SOURCE TERM
 = 0.1000E+31(WHEN MIN. R.F.=1)  AT K=   0, I=   0, J=   0

 MAXIMUM STEPSIZE WHICH MEETS STABILITY CRITERION OF THE DISPERSION TERM
 = 0.5605E-02(WHEN MIN. R.F.=1)  AT K=   3, I=   2, J=  32
     1 CALLS TO GCG PACKAGE FOR TRANSPORT TIME STEP   3 IN FLOW TIME STEP  69 STRESS PERIOD   2
    12 TOTAL ITERATIONS
 
 SOLVING FOR HEAD 
 FLOW MODEL IS TRANSIENT
 FLOW MODEL CONTAINS CONSTANT-HEAD CELLS


 MAXIMUM STEPSIZE DURING WHICH ANY PARTICLE CANNOT MOVE MORE THAN ONE CELL
 = 0.1187    (WHEN MIN. R.F.=1)  AT K=   3, I=   2, J=  33

 MAXIMUM STEPSIZE WHICH MEETS STABILITY CRITERION OF THE ADVECTION TERM
 (FOR PURE FINITE-DIFFERENCE OPTION, MIXELM=0) 
 = 0.8137E-01(WHEN MIN. R.F.=1)  AT K=   3, I=   2, J=  32


 TOTAL NUMBER OF POINT SOURCES/SINKS PRESENT IN THE FLOW MODEL =   240

 MAXIMUM STEPSIZE WHICH MEETS STABILITY CRITERION OF THE SINK & SOURCE TERM
 = 0.1000E+31(WHEN MIN. R.F.=1)  AT K=   0, I=   0, J=   0

 MAXIMUM STEPSIZE WHICH MEETS STABILITY CRITERION OF THE DISPERSION TERM
 = 0.5605E-02(WHEN MIN. R.F.=1)  AT K=   3, I=   2, J=  32
     1 CALLS TO GCG PACKAGE FOR TRANSPORT TIME STEP   4 IN FLOW TIME STEP  69 STRESS PERIOD   2
    12 TOTAL ITERATIONS
 
 SOLVING FOR HEAD 
 FLOW MODEL IS TRANSIENT
 FLOW MODEL CONTAINS CONSTANT-HEAD CELLS


 MAXIMUM STEPSIZE DURING WHICH ANY PARTICLE CANNOT MOVE MORE THAN ONE CELL
 = 0.1187    (WHEN MIN. R.F.=1)  AT K=   3, I=   2, J=  33

 MAXIMUM STEPSIZE WHICH MEETS STABILITY CRITERION OF THE ADVECTION TERM
 (FOR PURE FINITE-DIFFERENCE OPTION, MIXELM=0) 
 = 0.8137E-01(WHEN MIN. R.F.=1)  AT K=   3, I=   2, J=  32


 TOTAL NUMBER OF POINT SOURCES/SINKS PRESENT IN THE FLOW MODEL =   240

 MAXIMUM STEPSIZE WHICH MEETS STABILITY CRITERION OF THE SINK & SOURCE TERM
 = 0.1000E+31(WHEN MIN. R.F.=1)  AT K=   0, I=   0, J=   0

 MAXIMUM STEPSIZE WHICH MEETS STABILITY CRITERION OF THE DISPERSION TERM
 = 0.5605E-02(WHEN MIN. R.F.=1)  AT K=   3, I=   2, J=  32
     1 CALLS TO GCG PACKAGE FOR TRANSPORT TIME STEP   5 IN FLOW TIME STEP  69 STRESS PERIOD   2
    12 TOTAL ITERATIONS
 
 SOLVING FOR HEAD 
 FLOW MODEL IS TRANSIENT
 FLOW MODEL CONTAINS CONSTANT-HEAD CELLS


 MAXIMUM STEPSIZE DURING WHICH ANY PARTICLE CANNOT MOVE MORE THAN ONE CELL
 = 0.1187    (WHEN MIN. R.F.=1)  AT K=   3, I=   2, J=  33

 MAXIMUM STEPSIZE WHICH MEETS STABILITY CRITERION OF THE ADVECTION TERM
 (FOR PURE FINITE-DIFFERENCE OPTION, MIXELM=0) 
 = 0.8137E-01(WHEN MIN. R.F.=1)  AT K=   3, I=   2, J=  32


 TOTAL NUMBER OF POINT SOURCES/SINKS PRESENT IN THE FLOW MODEL =   240

 MAXIMUM STEPSIZE WHICH MEETS STABILITY CRITERION OF THE SINK & SOURCE TERM
 = 0.1000E+31(WHEN MIN. R.F.=1)  AT K=   0, I=   0, J=   0

 MAXIMUM STEPSIZE WHICH MEETS STABILITY CRITERION OF THE DISPERSION TERM
 = 0.5605E-02(WHEN MIN. R.F.=1)  AT K=   3, I=   2, J=  32
     1 CALLS TO GCG PACKAGE FOR TRANSPORT TIME STEP   6 IN FLOW TIME STEP  69 STRESS PERIOD   2
    12 TOTAL ITERATIONS
 
 SOLVING FOR HEAD 
 FLOW MODEL IS TRANSIENT
 FLOW MODEL CONTAINS CONSTANT-HEAD CELLS


 MAXIMUM STEPSIZE DURING WHICH ANY PARTICLE CANNOT MOVE MORE THAN ONE CELL
 = 0.1187    (WHEN MIN. R.F.=1)  AT K=   3, I=   2, J=  33

 MAXIMUM STEPSIZE WHICH MEETS STABILITY CRITERION OF THE ADVECTION TERM
 (FOR PURE FINITE-DIFFERENCE OPTION, MIXELM=0) 
 = 0.8137E-01(WHEN MIN. R.F.=1)  AT K=   3, I=   2, J=  32


 TOTAL NUMBER OF POINT SOURCES/SINKS PRESENT IN THE FLOW MODEL =   240

 MAXIMUM STEPSIZE WHICH MEETS STABILITY CRITERION OF THE SINK & SOURCE TERM
 = 0.1000E+31(WHEN MIN. R.F.=1)  AT K=   0, I=   0, J=   0

 MAXIMUM STEPSIZE WHICH MEETS STABILITY CRITERION OF THE DISPERSION TERM
 = 0.5605E-02(WHEN MIN. R.F.=1)  AT K=   3, I=   2, J=  32
     1 CALLS TO GCG PACKAGE FOR TRANSPORT TIME STEP   7 IN FLOW TIME STEP  69 STRESS PERIOD   2
    12 TOTAL ITERATIONS
 
 SOLVING FOR HEAD 
 FLOW MODEL IS TRANSIENT
 FLOW MODEL CONTAINS CONSTANT-HEAD CELLS


 MAXIMUM STEPSIZE DURING WHICH ANY PARTICLE CANNOT MOVE MORE THAN ONE CELL
 = 0.1187    (WHEN MIN. R.F.=1)  AT K=   3, I=   2, J=  33

 MAXIMUM STEPSIZE WHICH MEETS STABILITY CRITERION OF THE ADVECTION TERM
 (FOR PURE FINITE-DIFFERENCE OPTION, MIXELM=0) 
 = 0.8137E-01(WHEN MIN. R.F.=1)  AT K=   3, I=   2, J=  32


 TOTAL NUMBER OF POINT SOURCES/SINKS PRESENT IN THE FLOW MODEL =   240

 MAXIMUM STEPSIZE WHICH MEETS STABILITY CRITERION OF THE SINK & SOURCE TERM
 = 0.1000E+31(WHEN MIN. R.F.=1)  AT K=   0, I=   0, J=   0

 MAXIMUM STEPSIZE WHICH MEETS STABILITY CRITERION OF THE DISPERSION TERM
 = 0.5605E-02(WHEN MIN. R.F.=1)  AT K=   3, I=   2, J=  32
     1 CALLS TO GCG PACKAGE FOR TRANSPORT TIME STEP   8 IN FLOW TIME STEP  69 STRESS PERIOD   2
    12 TOTAL ITERATIONS
 
 SOLVING FOR HEAD 
 FLOW MODEL IS TRANSIENT
 FLOW MODEL CONTAINS CONSTANT-HEAD CELLS


 MAXIMUM STEPSIZE DURING WHICH ANY PARTICLE CANNOT MOVE MORE THAN ONE CELL
 = 0.1187    (WHEN MIN. R.F.=1)  AT K=   3, I=   2, J=  33

 MAXIMUM STEPSIZE WHICH MEETS STABILITY CRITERION OF THE ADVECTION TERM
 (FOR PURE FINITE-DIFFERENCE OPTION, MIXELM=0) 
 = 0.8137E-01(WHEN MIN. R.F.=1)  AT K=   3, I=   2, J=  32


 TOTAL NUMBER OF POINT SOURCES/SINKS PRESENT IN THE FLOW MODEL =   240

 MAXIMUM STEPSIZE WHICH MEETS STABILITY CRITERION OF THE SINK & SOURCE TERM
 = 0.1000E+31(WHEN MIN. R.F.=1)  AT K=   0, I=   0, J=   0

 MAXIMUM STEPSIZE WHICH MEETS STABILITY CRITERION OF THE DISPERSION TERM
 = 0.5605E-02(WHEN MIN. R.F.=1)  AT K=   3, I=   2, J=  32
     1 CALLS TO GCG PACKAGE FOR TRANSPORT TIME STEP   9 IN FLOW TIME STEP  69 STRESS PERIOD   2
    12 TOTAL ITERATIONS
 
 SOLVING FOR HEAD 
 FLOW MODEL IS TRANSIENT
 FLOW MODEL CONTAINS CONSTANT-HEAD CELLS


 MAXIMUM STEPSIZE DURING WHICH ANY PARTICLE CANNOT MOVE MORE THAN ONE CELL
 = 0.1187    (WHEN MIN. R.F.=1)  AT K=   3, I=   2, J=  33

 MAXIMUM STEPSIZE WHICH MEETS STABILITY CRITERION OF THE ADVECTION TERM
 (FOR PURE FINITE-DIFFERENCE OPTION, MIXELM=0) 
 = 0.8137E-01(WHEN MIN. R.F.=1)  AT K=   3, I=   2, J=  32


 TOTAL NUMBER OF POINT SOURCES/SINKS PRESENT IN THE FLOW MODEL =   240

 MAXIMUM STEPSIZE WHICH MEETS STABILITY CRITERION OF THE SINK & SOURCE TERM
 = 0.1000E+31(WHEN MIN. R.F.=1)  AT K=   0, I=   0, J=   0

 MAXIMUM STEPSIZE WHICH MEETS STABILITY CRITERION OF THE DISPERSION TERM
 = 0.5605E-02(WHEN MIN. R.F.=1)  AT K=   3, I=   2, J=  32
     1 CALLS TO GCG PACKAGE FOR TRANSPORT TIME STEP  10 IN FLOW TIME STEP  69 STRESS PERIOD   2
    12 TOTAL ITERATIONS



 >>>>>>>>>>>>>>>>>>>>>>>>>>>>>>>>>>>>>>>>>>>>>>>>>>>>>>>FOR COMPONENT NO. 01<<<<<<<<<<<<<<<<<<<<<<<<<<<<<<<<<<<<<<<<<<<<<<<<<<<<<<<


                                            -------------------------------------------
                                                      TRANSPORT STEP NO.   10
                                            -------------------------------------------

 TOTAL ELAPSED TIME SINCE BEGINNING OF SIMULATION =   69.89047    D   
 .....................................................................

                     CUMULATIVE MASS BUDGETS AT END OF TRANSPORT STEP   10, TIME STEP   69, STRESS PERIOD    2
                     ------------------------------------------------------------------------------------------

                                                             IN                           OUT
                                                      ----------------             ----------------
                               CONSTANT CONCENTRATION:    10835.75                   -6105.002    
                                        CONSTANT HEAD:    0.000000                    0.000000    
                               MASS STOR (FLOW MODEL):   0.1291204E-01              -0.3391633E-02
                                MASS STORAGE (SOLUTE):    7.296443                   -4738.057    
                            ---------------------------------------------------------------------------
                                              [TOTAL]:    10843.06     KG            -10843.06     KG  

                                                          NET (IN - OUT):  -0.3086702E-02
                                                   DISCREPANCY (PERCENT):  -0.2846707E-04
 
 SOLVING FOR HEAD 
 FLOW MODEL IS TRANSIENT
 FLOW MODEL CONTAINS CONSTANT-HEAD CELLS


 MAXIMUM STEPSIZE DURING WHICH ANY PARTICLE CANNOT MOVE MORE THAN ONE CELL
 = 0.1187    (WHEN MIN. R.F.=1)  AT K=   3, I=   2, J=  33

 MAXIMUM STEPSIZE WHICH MEETS STABILITY CRITERION OF THE ADVECTION TERM
 (FOR PURE FINITE-DIFFERENCE OPTION, MIXELM=0) 
 = 0.8137E-01(WHEN MIN. R.F.=1)  AT K=   3, I=   2, J=  32


 TOTAL NUMBER OF POINT SOURCES/SINKS PRESENT IN THE FLOW MODEL =   240

 MAXIMUM STEPSIZE WHICH MEETS STABILITY CRITERION OF THE SINK & SOURCE TERM
 = 0.1000E+31(WHEN MIN. R.F.=1)  AT K=   0, I=   0, J=   0

 MAXIMUM STEPSIZE WHICH MEETS STABILITY CRITERION OF THE DISPERSION TERM
 = 0.5605E-02(WHEN MIN. R.F.=1)  AT K=   3, I=   2, J=  32
     1 CALLS TO GCG PACKAGE FOR TRANSPORT TIME STEP  11 IN FLOW TIME STEP  69 STRESS PERIOD   2
    12 TOTAL ITERATIONS
 
 SOLVING FOR HEAD 
 FLOW MODEL IS TRANSIENT
 FLOW MODEL CONTAINS CONSTANT-HEAD CELLS


 MAXIMUM STEPSIZE DURING WHICH ANY PARTICLE CANNOT MOVE MORE THAN ONE CELL
 = 0.1187    (WHEN MIN. R.F.=1)  AT K=   3, I=   2, J=  33

 MAXIMUM STEPSIZE WHICH MEETS STABILITY CRITERION OF THE ADVECTION TERM
 (FOR PURE FINITE-DIFFERENCE OPTION, MIXELM=0) 
 = 0.8137E-01(WHEN MIN. R.F.=1)  AT K=   3, I=   2, J=  32


 TOTAL NUMBER OF POINT SOURCES/SINKS PRESENT IN THE FLOW MODEL =   240

 MAXIMUM STEPSIZE WHICH MEETS STABILITY CRITERION OF THE SINK & SOURCE TERM
 = 0.1000E+31(WHEN MIN. R.F.=1)  AT K=   0, I=   0, J=   0

 MAXIMUM STEPSIZE WHICH MEETS STABILITY CRITERION OF THE DISPERSION TERM
 = 0.5605E-02(WHEN MIN. R.F.=1)  AT K=   3, I=   2, J=  32
     1 CALLS TO GCG PACKAGE FOR TRANSPORT TIME STEP  12 IN FLOW TIME STEP  69 STRESS PERIOD   2
     6 TOTAL ITERATIONS
  MAXIMUM CONCENTRATION CHANGES FOR EACH ITERATION:
  MAX. CHANGE LAYER,ROW,COL MAX. CHANGE LAYER,ROW,COL MAX. CHANGE LAYER,ROW,COL MAX. CHANGE LAYER,ROW,COL MAX. CHANGE LAYER,ROW,COL
 ------------------------------------------------------------------------------------------------------------------------------------
   0.1272E-03 ( 14,  2, 58)  0.7965E-05 (  6,  2, 60)  0.1177E-05 (  5,  2, 57)  0.2869E-06 (  7,  2, 60)  0.1310E-06 (  4,  2, 33)
   0.5166E-07 (  3,  2, 32)


                                          ================================================
                                                         FROM TIME =   70.000     TO    71.000    

 
 SOLVING FOR HEAD 
 FLOW MODEL IS TRANSIENT
 FLOW MODEL CONTAINS CONSTANT-HEAD CELLS


 MAXIMUM STEPSIZE DURING WHICH ANY PARTICLE CANNOT MOVE MORE THAN ONE CELL
 = 0.1187    (WHEN MIN. R.F.=1)  AT K=   3, I=   2, J=  33

 MAXIMUM STEPSIZE WHICH MEETS STABILITY CRITERION OF THE ADVECTION TERM
 (FOR PURE FINITE-DIFFERENCE OPTION, MIXELM=0) 
 = 0.8137E-01(WHEN MIN. R.F.=1)  AT K=   3, I=   2, J=  32


 TOTAL NUMBER OF POINT SOURCES/SINKS PRESENT IN THE FLOW MODEL =   240

 MAXIMUM STEPSIZE WHICH MEETS STABILITY CRITERION OF THE SINK & SOURCE TERM
 = 0.1000E+31(WHEN MIN. R.F.=1)  AT K=   0, I=   0, J=   0

 MAXIMUM STEPSIZE WHICH MEETS STABILITY CRITERION OF THE DISPERSION TERM
 = 0.5605E-02(WHEN MIN. R.F.=1)  AT K=   3, I=   2, J=  32


     1 CALLS TO GCG PACKAGE FOR TRANSPORT TIME STEP   1 IN FLOW TIME STEP  70 STRESS PERIOD   2
    12 TOTAL ITERATIONS

 NO OUTPUT CONTROL FOR STRESS PERIOD    2   TIME STEP  70
 
 SOLVING FOR HEAD 
 FLOW MODEL IS TRANSIENT
 FLOW MODEL CONTAINS CONSTANT-HEAD CELLS


 MAXIMUM STEPSIZE DURING WHICH ANY PARTICLE CANNOT MOVE MORE THAN ONE CELL
 = 0.1187    (WHEN MIN. R.F.=1)  AT K=   3, I=   2, J=  33

 MAXIMUM STEPSIZE WHICH MEETS STABILITY CRITERION OF THE ADVECTION TERM
 (FOR PURE FINITE-DIFFERENCE OPTION, MIXELM=0) 
 = 0.8137E-01(WHEN MIN. R.F.=1)  AT K=   3, I=   2, J=  32


 TOTAL NUMBER OF POINT SOURCES/SINKS PRESENT IN THE FLOW MODEL =   240

 MAXIMUM STEPSIZE WHICH MEETS STABILITY CRITERION OF THE SINK & SOURCE TERM
 = 0.1000E+31(WHEN MIN. R.F.=1)  AT K=   0, I=   0, J=   0

 MAXIMUM STEPSIZE WHICH MEETS STABILITY CRITERION OF THE DISPERSION TERM
 = 0.5605E-02(WHEN MIN. R.F.=1)  AT K=   3, I=   2, J=  32
     1 CALLS TO GCG PACKAGE FOR TRANSPORT TIME STEP   2 IN FLOW TIME STEP  70 STRESS PERIOD   2
    12 TOTAL ITERATIONS
 
 SOLVING FOR HEAD 
 FLOW MODEL IS TRANSIENT
 FLOW MODEL CONTAINS CONSTANT-HEAD CELLS


 MAXIMUM STEPSIZE DURING WHICH ANY PARTICLE CANNOT MOVE MORE THAN ONE CELL
 = 0.1187    (WHEN MIN. R.F.=1)  AT K=   3, I=   2, J=  33

 MAXIMUM STEPSIZE WHICH MEETS STABILITY CRITERION OF THE ADVECTION TERM
 (FOR PURE FINITE-DIFFERENCE OPTION, MIXELM=0) 
 = 0.8137E-01(WHEN MIN. R.F.=1)  AT K=   3, I=   2, J=  32


 TOTAL NUMBER OF POINT SOURCES/SINKS PRESENT IN THE FLOW MODEL =   240

 MAXIMUM STEPSIZE WHICH MEETS STABILITY CRITERION OF THE SINK & SOURCE TERM
 = 0.1000E+31(WHEN MIN. R.F.=1)  AT K=   0, I=   0, J=   0

 MAXIMUM STEPSIZE WHICH MEETS STABILITY CRITERION OF THE DISPERSION TERM
 = 0.5605E-02(WHEN MIN. R.F.=1)  AT K=   3, I=   2, J=  32
     1 CALLS TO GCG PACKAGE FOR TRANSPORT TIME STEP   3 IN FLOW TIME STEP  70 STRESS PERIOD   2
    12 TOTAL ITERATIONS
 
 SOLVING FOR HEAD 
 FLOW MODEL IS TRANSIENT
 FLOW MODEL CONTAINS CONSTANT-HEAD CELLS


 MAXIMUM STEPSIZE DURING WHICH ANY PARTICLE CANNOT MOVE MORE THAN ONE CELL
 = 0.1187    (WHEN MIN. R.F.=1)  AT K=   3, I=   2, J=  33

 MAXIMUM STEPSIZE WHICH MEETS STABILITY CRITERION OF THE ADVECTION TERM
 (FOR PURE FINITE-DIFFERENCE OPTION, MIXELM=0) 
 = 0.8137E-01(WHEN MIN. R.F.=1)  AT K=   3, I=   2, J=  32


 TOTAL NUMBER OF POINT SOURCES/SINKS PRESENT IN THE FLOW MODEL =   240

 MAXIMUM STEPSIZE WHICH MEETS STABILITY CRITERION OF THE SINK & SOURCE TERM
 = 0.1000E+31(WHEN MIN. R.F.=1)  AT K=   0, I=   0, J=   0

 MAXIMUM STEPSIZE WHICH MEETS STABILITY CRITERION OF THE DISPERSION TERM
 = 0.5605E-02(WHEN MIN. R.F.=1)  AT K=   3, I=   2, J=  32
     1 CALLS TO GCG PACKAGE FOR TRANSPORT TIME STEP   4 IN FLOW TIME STEP  70 STRESS PERIOD   2
    12 TOTAL ITERATIONS
 
 SOLVING FOR HEAD 
 FLOW MODEL IS TRANSIENT
 FLOW MODEL CONTAINS CONSTANT-HEAD CELLS


 MAXIMUM STEPSIZE DURING WHICH ANY PARTICLE CANNOT MOVE MORE THAN ONE CELL
 = 0.1187    (WHEN MIN. R.F.=1)  AT K=   3, I=   2, J=  33

 MAXIMUM STEPSIZE WHICH MEETS STABILITY CRITERION OF THE ADVECTION TERM
 (FOR PURE FINITE-DIFFERENCE OPTION, MIXELM=0) 
 = 0.8137E-01(WHEN MIN. R.F.=1)  AT K=   3, I=   2, J=  32


 TOTAL NUMBER OF POINT SOURCES/SINKS PRESENT IN THE FLOW MODEL =   240

 MAXIMUM STEPSIZE WHICH MEETS STABILITY CRITERION OF THE SINK & SOURCE TERM
 = 0.1000E+31(WHEN MIN. R.F.=1)  AT K=   0, I=   0, J=   0

 MAXIMUM STEPSIZE WHICH MEETS STABILITY CRITERION OF THE DISPERSION TERM
 = 0.5605E-02(WHEN MIN. R.F.=1)  AT K=   3, I=   2, J=  32
     1 CALLS TO GCG PACKAGE FOR TRANSPORT TIME STEP   5 IN FLOW TIME STEP  70 STRESS PERIOD   2
    12 TOTAL ITERATIONS
 
 SOLVING FOR HEAD 
 FLOW MODEL IS TRANSIENT
 FLOW MODEL CONTAINS CONSTANT-HEAD CELLS


 MAXIMUM STEPSIZE DURING WHICH ANY PARTICLE CANNOT MOVE MORE THAN ONE CELL
 = 0.1187    (WHEN MIN. R.F.=1)  AT K=   3, I=   2, J=  33

 MAXIMUM STEPSIZE WHICH MEETS STABILITY CRITERION OF THE ADVECTION TERM
 (FOR PURE FINITE-DIFFERENCE OPTION, MIXELM=0) 
 = 0.8137E-01(WHEN MIN. R.F.=1)  AT K=   3, I=   2, J=  32


 TOTAL NUMBER OF POINT SOURCES/SINKS PRESENT IN THE FLOW MODEL =   240

 MAXIMUM STEPSIZE WHICH MEETS STABILITY CRITERION OF THE SINK & SOURCE TERM
 = 0.1000E+31(WHEN MIN. R.F.=1)  AT K=   0, I=   0, J=   0

 MAXIMUM STEPSIZE WHICH MEETS STABILITY CRITERION OF THE DISPERSION TERM
 = 0.5605E-02(WHEN MIN. R.F.=1)  AT K=   3, I=   2, J=  32
     1 CALLS TO GCG PACKAGE FOR TRANSPORT TIME STEP   6 IN FLOW TIME STEP  70 STRESS PERIOD   2
    12 TOTAL ITERATIONS
 
 SOLVING FOR HEAD 
 FLOW MODEL IS TRANSIENT
 FLOW MODEL CONTAINS CONSTANT-HEAD CELLS


 MAXIMUM STEPSIZE DURING WHICH ANY PARTICLE CANNOT MOVE MORE THAN ONE CELL
 = 0.1187    (WHEN MIN. R.F.=1)  AT K=   3, I=   2, J=  33

 MAXIMUM STEPSIZE WHICH MEETS STABILITY CRITERION OF THE ADVECTION TERM
 (FOR PURE FINITE-DIFFERENCE OPTION, MIXELM=0) 
 = 0.8137E-01(WHEN MIN. R.F.=1)  AT K=   3, I=   2, J=  32


 TOTAL NUMBER OF POINT SOURCES/SINKS PRESENT IN THE FLOW MODEL =   240

 MAXIMUM STEPSIZE WHICH MEETS STABILITY CRITERION OF THE SINK & SOURCE TERM
 = 0.1000E+31(WHEN MIN. R.F.=1)  AT K=   0, I=   0, J=   0

 MAXIMUM STEPSIZE WHICH MEETS STABILITY CRITERION OF THE DISPERSION TERM
 = 0.5605E-02(WHEN MIN. R.F.=1)  AT K=   3, I=   2, J=  32
     1 CALLS TO GCG PACKAGE FOR TRANSPORT TIME STEP   7 IN FLOW TIME STEP  70 STRESS PERIOD   2
    12 TOTAL ITERATIONS
 
 SOLVING FOR HEAD 
 FLOW MODEL IS TRANSIENT
 FLOW MODEL CONTAINS CONSTANT-HEAD CELLS


 MAXIMUM STEPSIZE DURING WHICH ANY PARTICLE CANNOT MOVE MORE THAN ONE CELL
 = 0.1187    (WHEN MIN. R.F.=1)  AT K=   3, I=   2, J=  33

 MAXIMUM STEPSIZE WHICH MEETS STABILITY CRITERION OF THE ADVECTION TERM
 (FOR PURE FINITE-DIFFERENCE OPTION, MIXELM=0) 
 = 0.8137E-01(WHEN MIN. R.F.=1)  AT K=   3, I=   2, J=  32


 TOTAL NUMBER OF POINT SOURCES/SINKS PRESENT IN THE FLOW MODEL =   240

 MAXIMUM STEPSIZE WHICH MEETS STABILITY CRITERION OF THE SINK & SOURCE TERM
 = 0.1000E+31(WHEN MIN. R.F.=1)  AT K=   0, I=   0, J=   0

 MAXIMUM STEPSIZE WHICH MEETS STABILITY CRITERION OF THE DISPERSION TERM
 = 0.5605E-02(WHEN MIN. R.F.=1)  AT K=   3, I=   2, J=  32
     1 CALLS TO GCG PACKAGE FOR TRANSPORT TIME STEP   8 IN FLOW TIME STEP  70 STRESS PERIOD   2
    12 TOTAL ITERATIONS
 
 SOLVING FOR HEAD 
 FLOW MODEL IS TRANSIENT
 FLOW MODEL CONTAINS CONSTANT-HEAD CELLS


 MAXIMUM STEPSIZE DURING WHICH ANY PARTICLE CANNOT MOVE MORE THAN ONE CELL
 = 0.1187    (WHEN MIN. R.F.=1)  AT K=   3, I=   2, J=  33

 MAXIMUM STEPSIZE WHICH MEETS STABILITY CRITERION OF THE ADVECTION TERM
 (FOR PURE FINITE-DIFFERENCE OPTION, MIXELM=0) 
 = 0.8137E-01(WHEN MIN. R.F.=1)  AT K=   3, I=   2, J=  32


 TOTAL NUMBER OF POINT SOURCES/SINKS PRESENT IN THE FLOW MODEL =   240

 MAXIMUM STEPSIZE WHICH MEETS STABILITY CRITERION OF THE SINK & SOURCE TERM
 = 0.1000E+31(WHEN MIN. R.F.=1)  AT K=   0, I=   0, J=   0

 MAXIMUM STEPSIZE WHICH MEETS STABILITY CRITERION OF THE DISPERSION TERM
 = 0.5605E-02(WHEN MIN. R.F.=1)  AT K=   3, I=   2, J=  32
     1 CALLS TO GCG PACKAGE FOR TRANSPORT TIME STEP   9 IN FLOW TIME STEP  70 STRESS PERIOD   2
    12 TOTAL ITERATIONS
 
 SOLVING FOR HEAD 
 FLOW MODEL IS TRANSIENT
 FLOW MODEL CONTAINS CONSTANT-HEAD CELLS


 MAXIMUM STEPSIZE DURING WHICH ANY PARTICLE CANNOT MOVE MORE THAN ONE CELL
 = 0.1187    (WHEN MIN. R.F.=1)  AT K=   3, I=   2, J=  33

 MAXIMUM STEPSIZE WHICH MEETS STABILITY CRITERION OF THE ADVECTION TERM
 (FOR PURE FINITE-DIFFERENCE OPTION, MIXELM=0) 
 = 0.8137E-01(WHEN MIN. R.F.=1)  AT K=   3, I=   2, J=  32


 TOTAL NUMBER OF POINT SOURCES/SINKS PRESENT IN THE FLOW MODEL =   240

 MAXIMUM STEPSIZE WHICH MEETS STABILITY CRITERION OF THE SINK & SOURCE TERM
 = 0.1000E+31(WHEN MIN. R.F.=1)  AT K=   0, I=   0, J=   0

 MAXIMUM STEPSIZE WHICH MEETS STABILITY CRITERION OF THE DISPERSION TERM
 = 0.5605E-02(WHEN MIN. R.F.=1)  AT K=   3, I=   2, J=  32
     1 CALLS TO GCG PACKAGE FOR TRANSPORT TIME STEP  10 IN FLOW TIME STEP  70 STRESS PERIOD   2
    12 TOTAL ITERATIONS



 >>>>>>>>>>>>>>>>>>>>>>>>>>>>>>>>>>>>>>>>>>>>>>>>>>>>>>>FOR COMPONENT NO. 01<<<<<<<<<<<<<<<<<<<<<<<<<<<<<<<<<<<<<<<<<<<<<<<<<<<<<<<


                                            -------------------------------------------
                                                      TRANSPORT STEP NO.   10
                                            -------------------------------------------

 TOTAL ELAPSED TIME SINCE BEGINNING OF SIMULATION =   70.89045    D   
 .....................................................................

                     CUMULATIVE MASS BUDGETS AT END OF TRANSPORT STEP   10, TIME STEP   70, STRESS PERIOD    2
                     ------------------------------------------------------------------------------------------

                                                             IN                           OUT
                                                      ----------------             ----------------
                               CONSTANT CONCENTRATION:    10942.66                   -6197.799    
                                        CONSTANT HEAD:    0.000000                    0.000000    
                               MASS STOR (FLOW MODEL):   0.1292733E-01              -0.3394938E-02
                                MASS STORAGE (SOLUTE):    7.545141                   -4752.420    
                            ---------------------------------------------------------------------------
                                              [TOTAL]:    10950.22     KG            -10950.22     KG  

                                                          NET (IN - OUT):  -0.3102903E-02
                                                   DISCREPANCY (PERCENT):  -0.2833645E-04
 
 SOLVING FOR HEAD 
 FLOW MODEL IS TRANSIENT
 FLOW MODEL CONTAINS CONSTANT-HEAD CELLS


 MAXIMUM STEPSIZE DURING WHICH ANY PARTICLE CANNOT MOVE MORE THAN ONE CELL
 = 0.1187    (WHEN MIN. R.F.=1)  AT K=   3, I=   2, J=  33

 MAXIMUM STEPSIZE WHICH MEETS STABILITY CRITERION OF THE ADVECTION TERM
 (FOR PURE FINITE-DIFFERENCE OPTION, MIXELM=0) 
 = 0.8137E-01(WHEN MIN. R.F.=1)  AT K=   3, I=   2, J=  32


 TOTAL NUMBER OF POINT SOURCES/SINKS PRESENT IN THE FLOW MODEL =   240

 MAXIMUM STEPSIZE WHICH MEETS STABILITY CRITERION OF THE SINK & SOURCE TERM
 = 0.1000E+31(WHEN MIN. R.F.=1)  AT K=   0, I=   0, J=   0

 MAXIMUM STEPSIZE WHICH MEETS STABILITY CRITERION OF THE DISPERSION TERM
 = 0.5605E-02(WHEN MIN. R.F.=1)  AT K=   3, I=   2, J=  32
     1 CALLS TO GCG PACKAGE FOR TRANSPORT TIME STEP  11 IN FLOW TIME STEP  70 STRESS PERIOD   2
    12 TOTAL ITERATIONS
 
 SOLVING FOR HEAD 
 FLOW MODEL IS TRANSIENT
 FLOW MODEL CONTAINS CONSTANT-HEAD CELLS


 MAXIMUM STEPSIZE DURING WHICH ANY PARTICLE CANNOT MOVE MORE THAN ONE CELL
 = 0.1187    (WHEN MIN. R.F.=1)  AT K=   3, I=   2, J=  33

 MAXIMUM STEPSIZE WHICH MEETS STABILITY CRITERION OF THE ADVECTION TERM
 (FOR PURE FINITE-DIFFERENCE OPTION, MIXELM=0) 
 = 0.8137E-01(WHEN MIN. R.F.=1)  AT K=   3, I=   2, J=  32


 TOTAL NUMBER OF POINT SOURCES/SINKS PRESENT IN THE FLOW MODEL =   240

 MAXIMUM STEPSIZE WHICH MEETS STABILITY CRITERION OF THE SINK & SOURCE TERM
 = 0.1000E+31(WHEN MIN. R.F.=1)  AT K=   0, I=   0, J=   0

 MAXIMUM STEPSIZE WHICH MEETS STABILITY CRITERION OF THE DISPERSION TERM
 = 0.5605E-02(WHEN MIN. R.F.=1)  AT K=   3, I=   2, J=  32
     1 CALLS TO GCG PACKAGE FOR TRANSPORT TIME STEP  12 IN FLOW TIME STEP  70 STRESS PERIOD   2
     6 TOTAL ITERATIONS
  MAXIMUM CONCENTRATION CHANGES FOR EACH ITERATION:
  MAX. CHANGE LAYER,ROW,COL MAX. CHANGE LAYER,ROW,COL MAX. CHANGE LAYER,ROW,COL MAX. CHANGE LAYER,ROW,COL MAX. CHANGE LAYER,ROW,COL
 ------------------------------------------------------------------------------------------------------------------------------------
   0.1272E-03 ( 16,  2, 54)  0.7720E-05 (  6,  2, 60)  0.1142E-05 (  5,  2, 57)  0.2766E-06 (  7,  2, 60)  0.1260E-06 (  4,  2, 33)
   0.4982E-07 (  3,  2, 32)


                                          ================================================
                                                         FROM TIME =   71.000     TO    72.000    

 
 SOLVING FOR HEAD 
 FLOW MODEL IS TRANSIENT
 FLOW MODEL CONTAINS CONSTANT-HEAD CELLS


 MAXIMUM STEPSIZE DURING WHICH ANY PARTICLE CANNOT MOVE MORE THAN ONE CELL
 = 0.1187    (WHEN MIN. R.F.=1)  AT K=   3, I=   2, J=  33

 MAXIMUM STEPSIZE WHICH MEETS STABILITY CRITERION OF THE ADVECTION TERM
 (FOR PURE FINITE-DIFFERENCE OPTION, MIXELM=0) 
 = 0.8137E-01(WHEN MIN. R.F.=1)  AT K=   3, I=   2, J=  32


 TOTAL NUMBER OF POINT SOURCES/SINKS PRESENT IN THE FLOW MODEL =   240

 MAXIMUM STEPSIZE WHICH MEETS STABILITY CRITERION OF THE SINK & SOURCE TERM
 = 0.1000E+31(WHEN MIN. R.F.=1)  AT K=   0, I=   0, J=   0

 MAXIMUM STEPSIZE WHICH MEETS STABILITY CRITERION OF THE DISPERSION TERM
 = 0.5605E-02(WHEN MIN. R.F.=1)  AT K=   3, I=   2, J=  32


     1 CALLS TO GCG PACKAGE FOR TRANSPORT TIME STEP   1 IN FLOW TIME STEP  71 STRESS PERIOD   2
    12 TOTAL ITERATIONS

 NO OUTPUT CONTROL FOR STRESS PERIOD    2   TIME STEP  71
 
 SOLVING FOR HEAD 
 FLOW MODEL IS TRANSIENT
 FLOW MODEL CONTAINS CONSTANT-HEAD CELLS


 MAXIMUM STEPSIZE DURING WHICH ANY PARTICLE CANNOT MOVE MORE THAN ONE CELL
 = 0.1187    (WHEN MIN. R.F.=1)  AT K=   3, I=   2, J=  33

 MAXIMUM STEPSIZE WHICH MEETS STABILITY CRITERION OF THE ADVECTION TERM
 (FOR PURE FINITE-DIFFERENCE OPTION, MIXELM=0) 
 = 0.8137E-01(WHEN MIN. R.F.=1)  AT K=   3, I=   2, J=  32


 TOTAL NUMBER OF POINT SOURCES/SINKS PRESENT IN THE FLOW MODEL =   240

 MAXIMUM STEPSIZE WHICH MEETS STABILITY CRITERION OF THE SINK & SOURCE TERM
 = 0.1000E+31(WHEN MIN. R.F.=1)  AT K=   0, I=   0, J=   0

 MAXIMUM STEPSIZE WHICH MEETS STABILITY CRITERION OF THE DISPERSION TERM
 = 0.5605E-02(WHEN MIN. R.F.=1)  AT K=   3, I=   2, J=  32
     1 CALLS TO GCG PACKAGE FOR TRANSPORT TIME STEP   2 IN FLOW TIME STEP  71 STRESS PERIOD   2
    12 TOTAL ITERATIONS
 
 SOLVING FOR HEAD 
 FLOW MODEL IS TRANSIENT
 FLOW MODEL CONTAINS CONSTANT-HEAD CELLS


 MAXIMUM STEPSIZE DURING WHICH ANY PARTICLE CANNOT MOVE MORE THAN ONE CELL
 = 0.1187    (WHEN MIN. R.F.=1)  AT K=   3, I=   2, J=  33

 MAXIMUM STEPSIZE WHICH MEETS STABILITY CRITERION OF THE ADVECTION TERM
 (FOR PURE FINITE-DIFFERENCE OPTION, MIXELM=0) 
 = 0.8137E-01(WHEN MIN. R.F.=1)  AT K=   3, I=   2, J=  32


 TOTAL NUMBER OF POINT SOURCES/SINKS PRESENT IN THE FLOW MODEL =   240

 MAXIMUM STEPSIZE WHICH MEETS STABILITY CRITERION OF THE SINK & SOURCE TERM
 = 0.1000E+31(WHEN MIN. R.F.=1)  AT K=   0, I=   0, J=   0

 MAXIMUM STEPSIZE WHICH MEETS STABILITY CRITERION OF THE DISPERSION TERM
 = 0.5605E-02(WHEN MIN. R.F.=1)  AT K=   3, I=   2, J=  32
     1 CALLS TO GCG PACKAGE FOR TRANSPORT TIME STEP   3 IN FLOW TIME STEP  71 STRESS PERIOD   2
    12 TOTAL ITERATIONS
 
 SOLVING FOR HEAD 
 FLOW MODEL IS TRANSIENT
 FLOW MODEL CONTAINS CONSTANT-HEAD CELLS


 MAXIMUM STEPSIZE DURING WHICH ANY PARTICLE CANNOT MOVE MORE THAN ONE CELL
 = 0.1187    (WHEN MIN. R.F.=1)  AT K=   3, I=   2, J=  33

 MAXIMUM STEPSIZE WHICH MEETS STABILITY CRITERION OF THE ADVECTION TERM
 (FOR PURE FINITE-DIFFERENCE OPTION, MIXELM=0) 
 = 0.8137E-01(WHEN MIN. R.F.=1)  AT K=   3, I=   2, J=  32


 TOTAL NUMBER OF POINT SOURCES/SINKS PRESENT IN THE FLOW MODEL =   240

 MAXIMUM STEPSIZE WHICH MEETS STABILITY CRITERION OF THE SINK & SOURCE TERM
 = 0.1000E+31(WHEN MIN. R.F.=1)  AT K=   0, I=   0, J=   0

 MAXIMUM STEPSIZE WHICH MEETS STABILITY CRITERION OF THE DISPERSION TERM
 = 0.5605E-02(WHEN MIN. R.F.=1)  AT K=   3, I=   2, J=  32
     1 CALLS TO GCG PACKAGE FOR TRANSPORT TIME STEP   4 IN FLOW TIME STEP  71 STRESS PERIOD   2
    12 TOTAL ITERATIONS
 
 SOLVING FOR HEAD 
 FLOW MODEL IS TRANSIENT
 FLOW MODEL CONTAINS CONSTANT-HEAD CELLS


 MAXIMUM STEPSIZE DURING WHICH ANY PARTICLE CANNOT MOVE MORE THAN ONE CELL
 = 0.1187    (WHEN MIN. R.F.=1)  AT K=   3, I=   2, J=  33

 MAXIMUM STEPSIZE WHICH MEETS STABILITY CRITERION OF THE ADVECTION TERM
 (FOR PURE FINITE-DIFFERENCE OPTION, MIXELM=0) 
 = 0.8137E-01(WHEN MIN. R.F.=1)  AT K=   3, I=   2, J=  32


 TOTAL NUMBER OF POINT SOURCES/SINKS PRESENT IN THE FLOW MODEL =   240

 MAXIMUM STEPSIZE WHICH MEETS STABILITY CRITERION OF THE SINK & SOURCE TERM
 = 0.1000E+31(WHEN MIN. R.F.=1)  AT K=   0, I=   0, J=   0

 MAXIMUM STEPSIZE WHICH MEETS STABILITY CRITERION OF THE DISPERSION TERM
 = 0.5605E-02(WHEN MIN. R.F.=1)  AT K=   3, I=   2, J=  32
     1 CALLS TO GCG PACKAGE FOR TRANSPORT TIME STEP   5 IN FLOW TIME STEP  71 STRESS PERIOD   2
    12 TOTAL ITERATIONS
 
 SOLVING FOR HEAD 
 FLOW MODEL IS TRANSIENT
 FLOW MODEL CONTAINS CONSTANT-HEAD CELLS


 MAXIMUM STEPSIZE DURING WHICH ANY PARTICLE CANNOT MOVE MORE THAN ONE CELL
 = 0.1187    (WHEN MIN. R.F.=1)  AT K=   3, I=   2, J=  33

 MAXIMUM STEPSIZE WHICH MEETS STABILITY CRITERION OF THE ADVECTION TERM
 (FOR PURE FINITE-DIFFERENCE OPTION, MIXELM=0) 
 = 0.8137E-01(WHEN MIN. R.F.=1)  AT K=   3, I=   2, J=  32


 TOTAL NUMBER OF POINT SOURCES/SINKS PRESENT IN THE FLOW MODEL =   240

 MAXIMUM STEPSIZE WHICH MEETS STABILITY CRITERION OF THE SINK & SOURCE TERM
 = 0.1000E+31(WHEN MIN. R.F.=1)  AT K=   0, I=   0, J=   0

 MAXIMUM STEPSIZE WHICH MEETS STABILITY CRITERION OF THE DISPERSION TERM
 = 0.5605E-02(WHEN MIN. R.F.=1)  AT K=   3, I=   2, J=  32
     1 CALLS TO GCG PACKAGE FOR TRANSPORT TIME STEP   6 IN FLOW TIME STEP  71 STRESS PERIOD   2
    12 TOTAL ITERATIONS
 
 SOLVING FOR HEAD 
 FLOW MODEL IS TRANSIENT
 FLOW MODEL CONTAINS CONSTANT-HEAD CELLS


 MAXIMUM STEPSIZE DURING WHICH ANY PARTICLE CANNOT MOVE MORE THAN ONE CELL
 = 0.1187    (WHEN MIN. R.F.=1)  AT K=   3, I=   2, J=  33

 MAXIMUM STEPSIZE WHICH MEETS STABILITY CRITERION OF THE ADVECTION TERM
 (FOR PURE FINITE-DIFFERENCE OPTION, MIXELM=0) 
 = 0.8137E-01(WHEN MIN. R.F.=1)  AT K=   3, I=   2, J=  32


 TOTAL NUMBER OF POINT SOURCES/SINKS PRESENT IN THE FLOW MODEL =   240

 MAXIMUM STEPSIZE WHICH MEETS STABILITY CRITERION OF THE SINK & SOURCE TERM
 = 0.1000E+31(WHEN MIN. R.F.=1)  AT K=   0, I=   0, J=   0

 MAXIMUM STEPSIZE WHICH MEETS STABILITY CRITERION OF THE DISPERSION TERM
 = 0.5605E-02(WHEN MIN. R.F.=1)  AT K=   3, I=   2, J=  32
     1 CALLS TO GCG PACKAGE FOR TRANSPORT TIME STEP   7 IN FLOW TIME STEP  71 STRESS PERIOD   2
    12 TOTAL ITERATIONS
 
 SOLVING FOR HEAD 
 FLOW MODEL IS TRANSIENT
 FLOW MODEL CONTAINS CONSTANT-HEAD CELLS


 MAXIMUM STEPSIZE DURING WHICH ANY PARTICLE CANNOT MOVE MORE THAN ONE CELL
 = 0.1187    (WHEN MIN. R.F.=1)  AT K=   3, I=   2, J=  33

 MAXIMUM STEPSIZE WHICH MEETS STABILITY CRITERION OF THE ADVECTION TERM
 (FOR PURE FINITE-DIFFERENCE OPTION, MIXELM=0) 
 = 0.8137E-01(WHEN MIN. R.F.=1)  AT K=   3, I=   2, J=  32


 TOTAL NUMBER OF POINT SOURCES/SINKS PRESENT IN THE FLOW MODEL =   240

 MAXIMUM STEPSIZE WHICH MEETS STABILITY CRITERION OF THE SINK & SOURCE TERM
 = 0.1000E+31(WHEN MIN. R.F.=1)  AT K=   0, I=   0, J=   0

 MAXIMUM STEPSIZE WHICH MEETS STABILITY CRITERION OF THE DISPERSION TERM
 = 0.5605E-02(WHEN MIN. R.F.=1)  AT K=   3, I=   2, J=  32
     1 CALLS TO GCG PACKAGE FOR TRANSPORT TIME STEP   8 IN FLOW TIME STEP  71 STRESS PERIOD   2
    12 TOTAL ITERATIONS
 
 SOLVING FOR HEAD 
 FLOW MODEL IS TRANSIENT
 FLOW MODEL CONTAINS CONSTANT-HEAD CELLS


 MAXIMUM STEPSIZE DURING WHICH ANY PARTICLE CANNOT MOVE MORE THAN ONE CELL
 = 0.1187    (WHEN MIN. R.F.=1)  AT K=   3, I=   2, J=  33

 MAXIMUM STEPSIZE WHICH MEETS STABILITY CRITERION OF THE ADVECTION TERM
 (FOR PURE FINITE-DIFFERENCE OPTION, MIXELM=0) 
 = 0.8137E-01(WHEN MIN. R.F.=1)  AT K=   3, I=   2, J=  32


 TOTAL NUMBER OF POINT SOURCES/SINKS PRESENT IN THE FLOW MODEL =   240

 MAXIMUM STEPSIZE WHICH MEETS STABILITY CRITERION OF THE SINK & SOURCE TERM
 = 0.1000E+31(WHEN MIN. R.F.=1)  AT K=   0, I=   0, J=   0

 MAXIMUM STEPSIZE WHICH MEETS STABILITY CRITERION OF THE DISPERSION TERM
 = 0.5605E-02(WHEN MIN. R.F.=1)  AT K=   3, I=   2, J=  32
     1 CALLS TO GCG PACKAGE FOR TRANSPORT TIME STEP   9 IN FLOW TIME STEP  71 STRESS PERIOD   2
    12 TOTAL ITERATIONS
 
 SOLVING FOR HEAD 
 FLOW MODEL IS TRANSIENT
 FLOW MODEL CONTAINS CONSTANT-HEAD CELLS


 MAXIMUM STEPSIZE DURING WHICH ANY PARTICLE CANNOT MOVE MORE THAN ONE CELL
 = 0.1187    (WHEN MIN. R.F.=1)  AT K=   3, I=   2, J=  33

 MAXIMUM STEPSIZE WHICH MEETS STABILITY CRITERION OF THE ADVECTION TERM
 (FOR PURE FINITE-DIFFERENCE OPTION, MIXELM=0) 
 = 0.8137E-01(WHEN MIN. R.F.=1)  AT K=   3, I=   2, J=  32


 TOTAL NUMBER OF POINT SOURCES/SINKS PRESENT IN THE FLOW MODEL =   240

 MAXIMUM STEPSIZE WHICH MEETS STABILITY CRITERION OF THE SINK & SOURCE TERM
 = 0.1000E+31(WHEN MIN. R.F.=1)  AT K=   0, I=   0, J=   0

 MAXIMUM STEPSIZE WHICH MEETS STABILITY CRITERION OF THE DISPERSION TERM
 = 0.5605E-02(WHEN MIN. R.F.=1)  AT K=   3, I=   2, J=  32
     1 CALLS TO GCG PACKAGE FOR TRANSPORT TIME STEP  10 IN FLOW TIME STEP  71 STRESS PERIOD   2
    12 TOTAL ITERATIONS



 >>>>>>>>>>>>>>>>>>>>>>>>>>>>>>>>>>>>>>>>>>>>>>>>>>>>>>>FOR COMPONENT NO. 01<<<<<<<<<<<<<<<<<<<<<<<<<<<<<<<<<<<<<<<<<<<<<<<<<<<<<<<


                                            -------------------------------------------
                                                      TRANSPORT STEP NO.   10
                                            -------------------------------------------

 TOTAL ELAPSED TIME SINCE BEGINNING OF SIMULATION =   71.89043    D   
 .....................................................................

                     CUMULATIVE MASS BUDGETS AT END OF TRANSPORT STEP   10, TIME STEP   71, STRESS PERIOD    2
                     ------------------------------------------------------------------------------------------

                                                             IN                           OUT
                                                      ----------------             ----------------
                               CONSTANT CONCENTRATION:    11049.36                   -6290.613    
                                        CONSTANT HEAD:    0.000000                    0.000000    
                               MASS STOR (FLOW MODEL):   0.1294245E-01              -0.3398125E-02
                                MASS STORAGE (SOLUTE):    7.782018                   -4766.542    
                            ---------------------------------------------------------------------------
                                              [TOTAL]:    11057.16     KG            -11057.16     KG  

                                                          NET (IN - OUT):  -0.3118912E-02
                                                   DISCREPANCY (PERCENT):  -0.2820718E-04
 
 SOLVING FOR HEAD 
 FLOW MODEL IS TRANSIENT
 FLOW MODEL CONTAINS CONSTANT-HEAD CELLS


 MAXIMUM STEPSIZE DURING WHICH ANY PARTICLE CANNOT MOVE MORE THAN ONE CELL
 = 0.1187    (WHEN MIN. R.F.=1)  AT K=   3, I=   2, J=  33

 MAXIMUM STEPSIZE WHICH MEETS STABILITY CRITERION OF THE ADVECTION TERM
 (FOR PURE FINITE-DIFFERENCE OPTION, MIXELM=0) 
 = 0.8137E-01(WHEN MIN. R.F.=1)  AT K=   3, I=   2, J=  32


 TOTAL NUMBER OF POINT SOURCES/SINKS PRESENT IN THE FLOW MODEL =   240

 MAXIMUM STEPSIZE WHICH MEETS STABILITY CRITERION OF THE SINK & SOURCE TERM
 = 0.1000E+31(WHEN MIN. R.F.=1)  AT K=   0, I=   0, J=   0

 MAXIMUM STEPSIZE WHICH MEETS STABILITY CRITERION OF THE DISPERSION TERM
 = 0.5605E-02(WHEN MIN. R.F.=1)  AT K=   3, I=   2, J=  32
     1 CALLS TO GCG PACKAGE FOR TRANSPORT TIME STEP  11 IN FLOW TIME STEP  71 STRESS PERIOD   2
    12 TOTAL ITERATIONS
 
 SOLVING FOR HEAD 
 FLOW MODEL IS TRANSIENT
 FLOW MODEL CONTAINS CONSTANT-HEAD CELLS


 MAXIMUM STEPSIZE DURING WHICH ANY PARTICLE CANNOT MOVE MORE THAN ONE CELL
 = 0.1187    (WHEN MIN. R.F.=1)  AT K=   3, I=   2, J=  33

 MAXIMUM STEPSIZE WHICH MEETS STABILITY CRITERION OF THE ADVECTION TERM
 (FOR PURE FINITE-DIFFERENCE OPTION, MIXELM=0) 
 = 0.8137E-01(WHEN MIN. R.F.=1)  AT K=   3, I=   2, J=  32


 TOTAL NUMBER OF POINT SOURCES/SINKS PRESENT IN THE FLOW MODEL =   240

 MAXIMUM STEPSIZE WHICH MEETS STABILITY CRITERION OF THE SINK & SOURCE TERM
 = 0.1000E+31(WHEN MIN. R.F.=1)  AT K=   0, I=   0, J=   0

 MAXIMUM STEPSIZE WHICH MEETS STABILITY CRITERION OF THE DISPERSION TERM
 = 0.5605E-02(WHEN MIN. R.F.=1)  AT K=   3, I=   2, J=  32
     1 CALLS TO GCG PACKAGE FOR TRANSPORT TIME STEP  12 IN FLOW TIME STEP  71 STRESS PERIOD   2
     6 TOTAL ITERATIONS
  MAXIMUM CONCENTRATION CHANGES FOR EACH ITERATION:
  MAX. CHANGE LAYER,ROW,COL MAX. CHANGE LAYER,ROW,COL MAX. CHANGE LAYER,ROW,COL MAX. CHANGE LAYER,ROW,COL MAX. CHANGE LAYER,ROW,COL
 ------------------------------------------------------------------------------------------------------------------------------------
   0.1273E-03 ( 16,  2, 54)  0.7484E-05 (  6,  2, 60)  0.1107E-05 (  5,  2, 57)  0.2663E-06 (  7,  2, 60)  0.1206E-06 (  4,  2, 33)
   0.4794E-07 (  3,  2, 32)


                                          ================================================
                                                         FROM TIME =   72.000     TO    73.000    

 
 SOLVING FOR HEAD 
 FLOW MODEL IS TRANSIENT
 FLOW MODEL CONTAINS CONSTANT-HEAD CELLS


 MAXIMUM STEPSIZE DURING WHICH ANY PARTICLE CANNOT MOVE MORE THAN ONE CELL
 = 0.1187    (WHEN MIN. R.F.=1)  AT K=   3, I=   2, J=  33

 MAXIMUM STEPSIZE WHICH MEETS STABILITY CRITERION OF THE ADVECTION TERM
 (FOR PURE FINITE-DIFFERENCE OPTION, MIXELM=0) 
 = 0.8137E-01(WHEN MIN. R.F.=1)  AT K=   3, I=   2, J=  32


 TOTAL NUMBER OF POINT SOURCES/SINKS PRESENT IN THE FLOW MODEL =   240

 MAXIMUM STEPSIZE WHICH MEETS STABILITY CRITERION OF THE SINK & SOURCE TERM
 = 0.1000E+31(WHEN MIN. R.F.=1)  AT K=   0, I=   0, J=   0

 MAXIMUM STEPSIZE WHICH MEETS STABILITY CRITERION OF THE DISPERSION TERM
 = 0.5605E-02(WHEN MIN. R.F.=1)  AT K=   3, I=   2, J=  32


     1 CALLS TO GCG PACKAGE FOR TRANSPORT TIME STEP   1 IN FLOW TIME STEP  72 STRESS PERIOD   2
    12 TOTAL ITERATIONS

 NO OUTPUT CONTROL FOR STRESS PERIOD    2   TIME STEP  72
 
 SOLVING FOR HEAD 
 FLOW MODEL IS TRANSIENT
 FLOW MODEL CONTAINS CONSTANT-HEAD CELLS


 MAXIMUM STEPSIZE DURING WHICH ANY PARTICLE CANNOT MOVE MORE THAN ONE CELL
 = 0.1187    (WHEN MIN. R.F.=1)  AT K=   3, I=   2, J=  33

 MAXIMUM STEPSIZE WHICH MEETS STABILITY CRITERION OF THE ADVECTION TERM
 (FOR PURE FINITE-DIFFERENCE OPTION, MIXELM=0) 
 = 0.8137E-01(WHEN MIN. R.F.=1)  AT K=   3, I=   2, J=  32


 TOTAL NUMBER OF POINT SOURCES/SINKS PRESENT IN THE FLOW MODEL =   240

 MAXIMUM STEPSIZE WHICH MEETS STABILITY CRITERION OF THE SINK & SOURCE TERM
 = 0.1000E+31(WHEN MIN. R.F.=1)  AT K=   0, I=   0, J=   0

 MAXIMUM STEPSIZE WHICH MEETS STABILITY CRITERION OF THE DISPERSION TERM
 = 0.5605E-02(WHEN MIN. R.F.=1)  AT K=   3, I=   2, J=  32
     1 CALLS TO GCG PACKAGE FOR TRANSPORT TIME STEP   2 IN FLOW TIME STEP  72 STRESS PERIOD   2
    12 TOTAL ITERATIONS
 
 SOLVING FOR HEAD 
 FLOW MODEL IS TRANSIENT
 FLOW MODEL CONTAINS CONSTANT-HEAD CELLS


 MAXIMUM STEPSIZE DURING WHICH ANY PARTICLE CANNOT MOVE MORE THAN ONE CELL
 = 0.1187    (WHEN MIN. R.F.=1)  AT K=   3, I=   2, J=  33

 MAXIMUM STEPSIZE WHICH MEETS STABILITY CRITERION OF THE ADVECTION TERM
 (FOR PURE FINITE-DIFFERENCE OPTION, MIXELM=0) 
 = 0.8137E-01(WHEN MIN. R.F.=1)  AT K=   3, I=   2, J=  32


 TOTAL NUMBER OF POINT SOURCES/SINKS PRESENT IN THE FLOW MODEL =   240

 MAXIMUM STEPSIZE WHICH MEETS STABILITY CRITERION OF THE SINK & SOURCE TERM
 = 0.1000E+31(WHEN MIN. R.F.=1)  AT K=   0, I=   0, J=   0

 MAXIMUM STEPSIZE WHICH MEETS STABILITY CRITERION OF THE DISPERSION TERM
 = 0.5605E-02(WHEN MIN. R.F.=1)  AT K=   3, I=   2, J=  32
     1 CALLS TO GCG PACKAGE FOR TRANSPORT TIME STEP   3 IN FLOW TIME STEP  72 STRESS PERIOD   2
    12 TOTAL ITERATIONS
 
 SOLVING FOR HEAD 
 FLOW MODEL IS TRANSIENT
 FLOW MODEL CONTAINS CONSTANT-HEAD CELLS


 MAXIMUM STEPSIZE DURING WHICH ANY PARTICLE CANNOT MOVE MORE THAN ONE CELL
 = 0.1187    (WHEN MIN. R.F.=1)  AT K=   3, I=   2, J=  33

 MAXIMUM STEPSIZE WHICH MEETS STABILITY CRITERION OF THE ADVECTION TERM
 (FOR PURE FINITE-DIFFERENCE OPTION, MIXELM=0) 
 = 0.8137E-01(WHEN MIN. R.F.=1)  AT K=   3, I=   2, J=  32


 TOTAL NUMBER OF POINT SOURCES/SINKS PRESENT IN THE FLOW MODEL =   240

 MAXIMUM STEPSIZE WHICH MEETS STABILITY CRITERION OF THE SINK & SOURCE TERM
 = 0.1000E+31(WHEN MIN. R.F.=1)  AT K=   0, I=   0, J=   0

 MAXIMUM STEPSIZE WHICH MEETS STABILITY CRITERION OF THE DISPERSION TERM
 = 0.5605E-02(WHEN MIN. R.F.=1)  AT K=   3, I=   2, J=  32
     1 CALLS TO GCG PACKAGE FOR TRANSPORT TIME STEP   4 IN FLOW TIME STEP  72 STRESS PERIOD   2
    12 TOTAL ITERATIONS
 
 SOLVING FOR HEAD 
 FLOW MODEL IS TRANSIENT
 FLOW MODEL CONTAINS CONSTANT-HEAD CELLS


 MAXIMUM STEPSIZE DURING WHICH ANY PARTICLE CANNOT MOVE MORE THAN ONE CELL
 = 0.1187    (WHEN MIN. R.F.=1)  AT K=   3, I=   2, J=  33

 MAXIMUM STEPSIZE WHICH MEETS STABILITY CRITERION OF THE ADVECTION TERM
 (FOR PURE FINITE-DIFFERENCE OPTION, MIXELM=0) 
 = 0.8137E-01(WHEN MIN. R.F.=1)  AT K=   3, I=   2, J=  32


 TOTAL NUMBER OF POINT SOURCES/SINKS PRESENT IN THE FLOW MODEL =   240

 MAXIMUM STEPSIZE WHICH MEETS STABILITY CRITERION OF THE SINK & SOURCE TERM
 = 0.1000E+31(WHEN MIN. R.F.=1)  AT K=   0, I=   0, J=   0

 MAXIMUM STEPSIZE WHICH MEETS STABILITY CRITERION OF THE DISPERSION TERM
 = 0.5605E-02(WHEN MIN. R.F.=1)  AT K=   3, I=   2, J=  32
     1 CALLS TO GCG PACKAGE FOR TRANSPORT TIME STEP   5 IN FLOW TIME STEP  72 STRESS PERIOD   2
    12 TOTAL ITERATIONS
 
 SOLVING FOR HEAD 
 FLOW MODEL IS TRANSIENT
 FLOW MODEL CONTAINS CONSTANT-HEAD CELLS


 MAXIMUM STEPSIZE DURING WHICH ANY PARTICLE CANNOT MOVE MORE THAN ONE CELL
 = 0.1187    (WHEN MIN. R.F.=1)  AT K=   3, I=   2, J=  33

 MAXIMUM STEPSIZE WHICH MEETS STABILITY CRITERION OF THE ADVECTION TERM
 (FOR PURE FINITE-DIFFERENCE OPTION, MIXELM=0) 
 = 0.8137E-01(WHEN MIN. R.F.=1)  AT K=   3, I=   2, J=  32


 TOTAL NUMBER OF POINT SOURCES/SINKS PRESENT IN THE FLOW MODEL =   240

 MAXIMUM STEPSIZE WHICH MEETS STABILITY CRITERION OF THE SINK & SOURCE TERM
 = 0.1000E+31(WHEN MIN. R.F.=1)  AT K=   0, I=   0, J=   0

 MAXIMUM STEPSIZE WHICH MEETS STABILITY CRITERION OF THE DISPERSION TERM
 = 0.5605E-02(WHEN MIN. R.F.=1)  AT K=   3, I=   2, J=  32
     1 CALLS TO GCG PACKAGE FOR TRANSPORT TIME STEP   6 IN FLOW TIME STEP  72 STRESS PERIOD   2
    12 TOTAL ITERATIONS
 
 SOLVING FOR HEAD 
 FLOW MODEL IS TRANSIENT
 FLOW MODEL CONTAINS CONSTANT-HEAD CELLS


 MAXIMUM STEPSIZE DURING WHICH ANY PARTICLE CANNOT MOVE MORE THAN ONE CELL
 = 0.1187    (WHEN MIN. R.F.=1)  AT K=   3, I=   2, J=  33

 MAXIMUM STEPSIZE WHICH MEETS STABILITY CRITERION OF THE ADVECTION TERM
 (FOR PURE FINITE-DIFFERENCE OPTION, MIXELM=0) 
 = 0.8137E-01(WHEN MIN. R.F.=1)  AT K=   3, I=   2, J=  32


 TOTAL NUMBER OF POINT SOURCES/SINKS PRESENT IN THE FLOW MODEL =   240

 MAXIMUM STEPSIZE WHICH MEETS STABILITY CRITERION OF THE SINK & SOURCE TERM
 = 0.1000E+31(WHEN MIN. R.F.=1)  AT K=   0, I=   0, J=   0

 MAXIMUM STEPSIZE WHICH MEETS STABILITY CRITERION OF THE DISPERSION TERM
 = 0.5605E-02(WHEN MIN. R.F.=1)  AT K=   3, I=   2, J=  32
     1 CALLS TO GCG PACKAGE FOR TRANSPORT TIME STEP   7 IN FLOW TIME STEP  72 STRESS PERIOD   2
    12 TOTAL ITERATIONS
 
 SOLVING FOR HEAD 
 FLOW MODEL IS TRANSIENT
 FLOW MODEL CONTAINS CONSTANT-HEAD CELLS


 MAXIMUM STEPSIZE DURING WHICH ANY PARTICLE CANNOT MOVE MORE THAN ONE CELL
 = 0.1187    (WHEN MIN. R.F.=1)  AT K=   3, I=   2, J=  33

 MAXIMUM STEPSIZE WHICH MEETS STABILITY CRITERION OF THE ADVECTION TERM
 (FOR PURE FINITE-DIFFERENCE OPTION, MIXELM=0) 
 = 0.8137E-01(WHEN MIN. R.F.=1)  AT K=   3, I=   2, J=  32


 TOTAL NUMBER OF POINT SOURCES/SINKS PRESENT IN THE FLOW MODEL =   240

 MAXIMUM STEPSIZE WHICH MEETS STABILITY CRITERION OF THE SINK & SOURCE TERM
 = 0.1000E+31(WHEN MIN. R.F.=1)  AT K=   0, I=   0, J=   0

 MAXIMUM STEPSIZE WHICH MEETS STABILITY CRITERION OF THE DISPERSION TERM
 = 0.5605E-02(WHEN MIN. R.F.=1)  AT K=   3, I=   2, J=  32
     1 CALLS TO GCG PACKAGE FOR TRANSPORT TIME STEP   8 IN FLOW TIME STEP  72 STRESS PERIOD   2
    12 TOTAL ITERATIONS
 
 SOLVING FOR HEAD 
 FLOW MODEL IS TRANSIENT
 FLOW MODEL CONTAINS CONSTANT-HEAD CELLS


 MAXIMUM STEPSIZE DURING WHICH ANY PARTICLE CANNOT MOVE MORE THAN ONE CELL
 = 0.1187    (WHEN MIN. R.F.=1)  AT K=   3, I=   2, J=  33

 MAXIMUM STEPSIZE WHICH MEETS STABILITY CRITERION OF THE ADVECTION TERM
 (FOR PURE FINITE-DIFFERENCE OPTION, MIXELM=0) 
 = 0.8137E-01(WHEN MIN. R.F.=1)  AT K=   3, I=   2, J=  32


 TOTAL NUMBER OF POINT SOURCES/SINKS PRESENT IN THE FLOW MODEL =   240

 MAXIMUM STEPSIZE WHICH MEETS STABILITY CRITERION OF THE SINK & SOURCE TERM
 = 0.1000E+31(WHEN MIN. R.F.=1)  AT K=   0, I=   0, J=   0

 MAXIMUM STEPSIZE WHICH MEETS STABILITY CRITERION OF THE DISPERSION TERM
 = 0.5605E-02(WHEN MIN. R.F.=1)  AT K=   3, I=   2, J=  32
     1 CALLS TO GCG PACKAGE FOR TRANSPORT TIME STEP   9 IN FLOW TIME STEP  72 STRESS PERIOD   2
    12 TOTAL ITERATIONS
 
 SOLVING FOR HEAD 
 FLOW MODEL IS TRANSIENT
 FLOW MODEL CONTAINS CONSTANT-HEAD CELLS


 MAXIMUM STEPSIZE DURING WHICH ANY PARTICLE CANNOT MOVE MORE THAN ONE CELL
 = 0.1187    (WHEN MIN. R.F.=1)  AT K=   3, I=   2, J=  33

 MAXIMUM STEPSIZE WHICH MEETS STABILITY CRITERION OF THE ADVECTION TERM
 (FOR PURE FINITE-DIFFERENCE OPTION, MIXELM=0) 
 = 0.8137E-01(WHEN MIN. R.F.=1)  AT K=   3, I=   2, J=  32


 TOTAL NUMBER OF POINT SOURCES/SINKS PRESENT IN THE FLOW MODEL =   240

 MAXIMUM STEPSIZE WHICH MEETS STABILITY CRITERION OF THE SINK & SOURCE TERM
 = 0.1000E+31(WHEN MIN. R.F.=1)  AT K=   0, I=   0, J=   0

 MAXIMUM STEPSIZE WHICH MEETS STABILITY CRITERION OF THE DISPERSION TERM
 = 0.5605E-02(WHEN MIN. R.F.=1)  AT K=   3, I=   2, J=  32
     1 CALLS TO GCG PACKAGE FOR TRANSPORT TIME STEP  10 IN FLOW TIME STEP  72 STRESS PERIOD   2
    12 TOTAL ITERATIONS



 >>>>>>>>>>>>>>>>>>>>>>>>>>>>>>>>>>>>>>>>>>>>>>>>>>>>>>>FOR COMPONENT NO. 01<<<<<<<<<<<<<<<<<<<<<<<<<<<<<<<<<<<<<<<<<<<<<<<<<<<<<<<


                                            -------------------------------------------
                                                      TRANSPORT STEP NO.   10
                                            -------------------------------------------

 TOTAL ELAPSED TIME SINCE BEGINNING OF SIMULATION =   72.89042    D   
 .....................................................................

                     CUMULATIVE MASS BUDGETS AT END OF TRANSPORT STEP   10, TIME STEP   72, STRESS PERIOD    2
                     ------------------------------------------------------------------------------------------

                                                             IN                           OUT
                                                      ----------------             ----------------
                               CONSTANT CONCENTRATION:    11155.86                   -6383.444    
                                        CONSTANT HEAD:    0.000000                    0.000000    
                               MASS STOR (FLOW MODEL):   0.1295741E-01              -0.3401197E-02
                                MASS STORAGE (SOLUTE):    8.013091                   -4780.440    
                            ---------------------------------------------------------------------------
                                              [TOTAL]:    11163.88     KG            -11163.89     KG  

                                                          NET (IN - OUT):  -0.3134483E-02
                                                   DISCREPANCY (PERCENT):  -0.2807699E-04
 
 SOLVING FOR HEAD 
 FLOW MODEL IS TRANSIENT
 FLOW MODEL CONTAINS CONSTANT-HEAD CELLS


 MAXIMUM STEPSIZE DURING WHICH ANY PARTICLE CANNOT MOVE MORE THAN ONE CELL
 = 0.1187    (WHEN MIN. R.F.=1)  AT K=   3, I=   2, J=  33

 MAXIMUM STEPSIZE WHICH MEETS STABILITY CRITERION OF THE ADVECTION TERM
 (FOR PURE FINITE-DIFFERENCE OPTION, MIXELM=0) 
 = 0.8137E-01(WHEN MIN. R.F.=1)  AT K=   3, I=   2, J=  32


 TOTAL NUMBER OF POINT SOURCES/SINKS PRESENT IN THE FLOW MODEL =   240

 MAXIMUM STEPSIZE WHICH MEETS STABILITY CRITERION OF THE SINK & SOURCE TERM
 = 0.1000E+31(WHEN MIN. R.F.=1)  AT K=   0, I=   0, J=   0

 MAXIMUM STEPSIZE WHICH MEETS STABILITY CRITERION OF THE DISPERSION TERM
 = 0.5605E-02(WHEN MIN. R.F.=1)  AT K=   3, I=   2, J=  32
     1 CALLS TO GCG PACKAGE FOR TRANSPORT TIME STEP  11 IN FLOW TIME STEP  72 STRESS PERIOD   2
    12 TOTAL ITERATIONS
 
 SOLVING FOR HEAD 
 FLOW MODEL IS TRANSIENT
 FLOW MODEL CONTAINS CONSTANT-HEAD CELLS


 MAXIMUM STEPSIZE DURING WHICH ANY PARTICLE CANNOT MOVE MORE THAN ONE CELL
 = 0.1187    (WHEN MIN. R.F.=1)  AT K=   3, I=   2, J=  33

 MAXIMUM STEPSIZE WHICH MEETS STABILITY CRITERION OF THE ADVECTION TERM
 (FOR PURE FINITE-DIFFERENCE OPTION, MIXELM=0) 
 = 0.8137E-01(WHEN MIN. R.F.=1)  AT K=   3, I=   2, J=  32


 TOTAL NUMBER OF POINT SOURCES/SINKS PRESENT IN THE FLOW MODEL =   240

 MAXIMUM STEPSIZE WHICH MEETS STABILITY CRITERION OF THE SINK & SOURCE TERM
 = 0.1000E+31(WHEN MIN. R.F.=1)  AT K=   0, I=   0, J=   0

 MAXIMUM STEPSIZE WHICH MEETS STABILITY CRITERION OF THE DISPERSION TERM
 = 0.5605E-02(WHEN MIN. R.F.=1)  AT K=   3, I=   2, J=  32
     1 CALLS TO GCG PACKAGE FOR TRANSPORT TIME STEP  12 IN FLOW TIME STEP  72 STRESS PERIOD   2
     6 TOTAL ITERATIONS
  MAXIMUM CONCENTRATION CHANGES FOR EACH ITERATION:
  MAX. CHANGE LAYER,ROW,COL MAX. CHANGE LAYER,ROW,COL MAX. CHANGE LAYER,ROW,COL MAX. CHANGE LAYER,ROW,COL MAX. CHANGE LAYER,ROW,COL
 ------------------------------------------------------------------------------------------------------------------------------------
   0.1272E-03 ( 16,  2, 54)  0.7264E-05 (  6,  2, 61)  0.1074E-05 (  5,  2, 57)  0.2559E-06 (  7,  2, 60)  0.1148E-06 (  4,  2, 33)
   0.4601E-07 (  3,  2, 32)


                                          ================================================
                                                         FROM TIME =   73.000     TO    74.000    

 
 SOLVING FOR HEAD 
 FLOW MODEL IS TRANSIENT
 FLOW MODEL CONTAINS CONSTANT-HEAD CELLS


 MAXIMUM STEPSIZE DURING WHICH ANY PARTICLE CANNOT MOVE MORE THAN ONE CELL
 = 0.1187    (WHEN MIN. R.F.=1)  AT K=   3, I=   2, J=  33

 MAXIMUM STEPSIZE WHICH MEETS STABILITY CRITERION OF THE ADVECTION TERM
 (FOR PURE FINITE-DIFFERENCE OPTION, MIXELM=0) 
 = 0.8137E-01(WHEN MIN. R.F.=1)  AT K=   3, I=   2, J=  32


 TOTAL NUMBER OF POINT SOURCES/SINKS PRESENT IN THE FLOW MODEL =   240

 MAXIMUM STEPSIZE WHICH MEETS STABILITY CRITERION OF THE SINK & SOURCE TERM
 = 0.1000E+31(WHEN MIN. R.F.=1)  AT K=   0, I=   0, J=   0

 MAXIMUM STEPSIZE WHICH MEETS STABILITY CRITERION OF THE DISPERSION TERM
 = 0.5605E-02(WHEN MIN. R.F.=1)  AT K=   3, I=   2, J=  32


     1 CALLS TO GCG PACKAGE FOR TRANSPORT TIME STEP   1 IN FLOW TIME STEP  73 STRESS PERIOD   2
    12 TOTAL ITERATIONS

 NO OUTPUT CONTROL FOR STRESS PERIOD    2   TIME STEP  73
 
 SOLVING FOR HEAD 
 FLOW MODEL IS TRANSIENT
 FLOW MODEL CONTAINS CONSTANT-HEAD CELLS


 MAXIMUM STEPSIZE DURING WHICH ANY PARTICLE CANNOT MOVE MORE THAN ONE CELL
 = 0.1187    (WHEN MIN. R.F.=1)  AT K=   3, I=   2, J=  33

 MAXIMUM STEPSIZE WHICH MEETS STABILITY CRITERION OF THE ADVECTION TERM
 (FOR PURE FINITE-DIFFERENCE OPTION, MIXELM=0) 
 = 0.8137E-01(WHEN MIN. R.F.=1)  AT K=   3, I=   2, J=  32


 TOTAL NUMBER OF POINT SOURCES/SINKS PRESENT IN THE FLOW MODEL =   240

 MAXIMUM STEPSIZE WHICH MEETS STABILITY CRITERION OF THE SINK & SOURCE TERM
 = 0.1000E+31(WHEN MIN. R.F.=1)  AT K=   0, I=   0, J=   0

 MAXIMUM STEPSIZE WHICH MEETS STABILITY CRITERION OF THE DISPERSION TERM
 = 0.5605E-02(WHEN MIN. R.F.=1)  AT K=   3, I=   2, J=  32
     1 CALLS TO GCG PACKAGE FOR TRANSPORT TIME STEP   2 IN FLOW TIME STEP  73 STRESS PERIOD   2
    12 TOTAL ITERATIONS
 
 SOLVING FOR HEAD 
 FLOW MODEL IS TRANSIENT
 FLOW MODEL CONTAINS CONSTANT-HEAD CELLS


 MAXIMUM STEPSIZE DURING WHICH ANY PARTICLE CANNOT MOVE MORE THAN ONE CELL
 = 0.1187    (WHEN MIN. R.F.=1)  AT K=   3, I=   2, J=  33

 MAXIMUM STEPSIZE WHICH MEETS STABILITY CRITERION OF THE ADVECTION TERM
 (FOR PURE FINITE-DIFFERENCE OPTION, MIXELM=0) 
 = 0.8137E-01(WHEN MIN. R.F.=1)  AT K=   3, I=   2, J=  32


 TOTAL NUMBER OF POINT SOURCES/SINKS PRESENT IN THE FLOW MODEL =   240

 MAXIMUM STEPSIZE WHICH MEETS STABILITY CRITERION OF THE SINK & SOURCE TERM
 = 0.1000E+31(WHEN MIN. R.F.=1)  AT K=   0, I=   0, J=   0

 MAXIMUM STEPSIZE WHICH MEETS STABILITY CRITERION OF THE DISPERSION TERM
 = 0.5605E-02(WHEN MIN. R.F.=1)  AT K=   3, I=   2, J=  32
     1 CALLS TO GCG PACKAGE FOR TRANSPORT TIME STEP   3 IN FLOW TIME STEP  73 STRESS PERIOD   2
    12 TOTAL ITERATIONS
 
 SOLVING FOR HEAD 
 FLOW MODEL IS TRANSIENT
 FLOW MODEL CONTAINS CONSTANT-HEAD CELLS


 MAXIMUM STEPSIZE DURING WHICH ANY PARTICLE CANNOT MOVE MORE THAN ONE CELL
 = 0.1187    (WHEN MIN. R.F.=1)  AT K=   3, I=   2, J=  33

 MAXIMUM STEPSIZE WHICH MEETS STABILITY CRITERION OF THE ADVECTION TERM
 (FOR PURE FINITE-DIFFERENCE OPTION, MIXELM=0) 
 = 0.8137E-01(WHEN MIN. R.F.=1)  AT K=   3, I=   2, J=  32


 TOTAL NUMBER OF POINT SOURCES/SINKS PRESENT IN THE FLOW MODEL =   240

 MAXIMUM STEPSIZE WHICH MEETS STABILITY CRITERION OF THE SINK & SOURCE TERM
 = 0.1000E+31(WHEN MIN. R.F.=1)  AT K=   0, I=   0, J=   0

 MAXIMUM STEPSIZE WHICH MEETS STABILITY CRITERION OF THE DISPERSION TERM
 = 0.5605E-02(WHEN MIN. R.F.=1)  AT K=   3, I=   2, J=  32
     1 CALLS TO GCG PACKAGE FOR TRANSPORT TIME STEP   4 IN FLOW TIME STEP  73 STRESS PERIOD   2
    12 TOTAL ITERATIONS
 
 SOLVING FOR HEAD 
 FLOW MODEL IS TRANSIENT
 FLOW MODEL CONTAINS CONSTANT-HEAD CELLS


 MAXIMUM STEPSIZE DURING WHICH ANY PARTICLE CANNOT MOVE MORE THAN ONE CELL
 = 0.1187    (WHEN MIN. R.F.=1)  AT K=   3, I=   2, J=  33

 MAXIMUM STEPSIZE WHICH MEETS STABILITY CRITERION OF THE ADVECTION TERM
 (FOR PURE FINITE-DIFFERENCE OPTION, MIXELM=0) 
 = 0.8137E-01(WHEN MIN. R.F.=1)  AT K=   3, I=   2, J=  32


 TOTAL NUMBER OF POINT SOURCES/SINKS PRESENT IN THE FLOW MODEL =   240

 MAXIMUM STEPSIZE WHICH MEETS STABILITY CRITERION OF THE SINK & SOURCE TERM
 = 0.1000E+31(WHEN MIN. R.F.=1)  AT K=   0, I=   0, J=   0

 MAXIMUM STEPSIZE WHICH MEETS STABILITY CRITERION OF THE DISPERSION TERM
 = 0.5605E-02(WHEN MIN. R.F.=1)  AT K=   3, I=   2, J=  32
     1 CALLS TO GCG PACKAGE FOR TRANSPORT TIME STEP   5 IN FLOW TIME STEP  73 STRESS PERIOD   2
    12 TOTAL ITERATIONS
 
 SOLVING FOR HEAD 
 FLOW MODEL IS TRANSIENT
 FLOW MODEL CONTAINS CONSTANT-HEAD CELLS


 MAXIMUM STEPSIZE DURING WHICH ANY PARTICLE CANNOT MOVE MORE THAN ONE CELL
 = 0.1187    (WHEN MIN. R.F.=1)  AT K=   3, I=   2, J=  33

 MAXIMUM STEPSIZE WHICH MEETS STABILITY CRITERION OF THE ADVECTION TERM
 (FOR PURE FINITE-DIFFERENCE OPTION, MIXELM=0) 
 = 0.8137E-01(WHEN MIN. R.F.=1)  AT K=   3, I=   2, J=  32


 TOTAL NUMBER OF POINT SOURCES/SINKS PRESENT IN THE FLOW MODEL =   240

 MAXIMUM STEPSIZE WHICH MEETS STABILITY CRITERION OF THE SINK & SOURCE TERM
 = 0.1000E+31(WHEN MIN. R.F.=1)  AT K=   0, I=   0, J=   0

 MAXIMUM STEPSIZE WHICH MEETS STABILITY CRITERION OF THE DISPERSION TERM
 = 0.5605E-02(WHEN MIN. R.F.=1)  AT K=   3, I=   2, J=  32
     1 CALLS TO GCG PACKAGE FOR TRANSPORT TIME STEP   6 IN FLOW TIME STEP  73 STRESS PERIOD   2
    12 TOTAL ITERATIONS
 
 SOLVING FOR HEAD 
 FLOW MODEL IS TRANSIENT
 FLOW MODEL CONTAINS CONSTANT-HEAD CELLS


 MAXIMUM STEPSIZE DURING WHICH ANY PARTICLE CANNOT MOVE MORE THAN ONE CELL
 = 0.1187    (WHEN MIN. R.F.=1)  AT K=   3, I=   2, J=  33

 MAXIMUM STEPSIZE WHICH MEETS STABILITY CRITERION OF THE ADVECTION TERM
 (FOR PURE FINITE-DIFFERENCE OPTION, MIXELM=0) 
 = 0.8137E-01(WHEN MIN. R.F.=1)  AT K=   3, I=   2, J=  32


 TOTAL NUMBER OF POINT SOURCES/SINKS PRESENT IN THE FLOW MODEL =   240

 MAXIMUM STEPSIZE WHICH MEETS STABILITY CRITERION OF THE SINK & SOURCE TERM
 = 0.1000E+31(WHEN MIN. R.F.=1)  AT K=   0, I=   0, J=   0

 MAXIMUM STEPSIZE WHICH MEETS STABILITY CRITERION OF THE DISPERSION TERM
 = 0.5605E-02(WHEN MIN. R.F.=1)  AT K=   3, I=   2, J=  32
     1 CALLS TO GCG PACKAGE FOR TRANSPORT TIME STEP   7 IN FLOW TIME STEP  73 STRESS PERIOD   2
    12 TOTAL ITERATIONS
 
 SOLVING FOR HEAD 
 FLOW MODEL IS TRANSIENT
 FLOW MODEL CONTAINS CONSTANT-HEAD CELLS


 MAXIMUM STEPSIZE DURING WHICH ANY PARTICLE CANNOT MOVE MORE THAN ONE CELL
 = 0.1187    (WHEN MIN. R.F.=1)  AT K=   3, I=   2, J=  33

 MAXIMUM STEPSIZE WHICH MEETS STABILITY CRITERION OF THE ADVECTION TERM
 (FOR PURE FINITE-DIFFERENCE OPTION, MIXELM=0) 
 = 0.8137E-01(WHEN MIN. R.F.=1)  AT K=   3, I=   2, J=  32


 TOTAL NUMBER OF POINT SOURCES/SINKS PRESENT IN THE FLOW MODEL =   240

 MAXIMUM STEPSIZE WHICH MEETS STABILITY CRITERION OF THE SINK & SOURCE TERM
 = 0.1000E+31(WHEN MIN. R.F.=1)  AT K=   0, I=   0, J=   0

 MAXIMUM STEPSIZE WHICH MEETS STABILITY CRITERION OF THE DISPERSION TERM
 = 0.5605E-02(WHEN MIN. R.F.=1)  AT K=   3, I=   2, J=  32
     1 CALLS TO GCG PACKAGE FOR TRANSPORT TIME STEP   8 IN FLOW TIME STEP  73 STRESS PERIOD   2
    12 TOTAL ITERATIONS
 
 SOLVING FOR HEAD 
 FLOW MODEL IS TRANSIENT
 FLOW MODEL CONTAINS CONSTANT-HEAD CELLS


 MAXIMUM STEPSIZE DURING WHICH ANY PARTICLE CANNOT MOVE MORE THAN ONE CELL
 = 0.1187    (WHEN MIN. R.F.=1)  AT K=   3, I=   2, J=  33

 MAXIMUM STEPSIZE WHICH MEETS STABILITY CRITERION OF THE ADVECTION TERM
 (FOR PURE FINITE-DIFFERENCE OPTION, MIXELM=0) 
 = 0.8137E-01(WHEN MIN. R.F.=1)  AT K=   3, I=   2, J=  32


 TOTAL NUMBER OF POINT SOURCES/SINKS PRESENT IN THE FLOW MODEL =   240

 MAXIMUM STEPSIZE WHICH MEETS STABILITY CRITERION OF THE SINK & SOURCE TERM
 = 0.1000E+31(WHEN MIN. R.F.=1)  AT K=   0, I=   0, J=   0

 MAXIMUM STEPSIZE WHICH MEETS STABILITY CRITERION OF THE DISPERSION TERM
 = 0.5605E-02(WHEN MIN. R.F.=1)  AT K=   3, I=   2, J=  32
     1 CALLS TO GCG PACKAGE FOR TRANSPORT TIME STEP   9 IN FLOW TIME STEP  73 STRESS PERIOD   2
    12 TOTAL ITERATIONS
 
 SOLVING FOR HEAD 
 FLOW MODEL IS TRANSIENT
 FLOW MODEL CONTAINS CONSTANT-HEAD CELLS


 MAXIMUM STEPSIZE DURING WHICH ANY PARTICLE CANNOT MOVE MORE THAN ONE CELL
 = 0.1187    (WHEN MIN. R.F.=1)  AT K=   3, I=   2, J=  33

 MAXIMUM STEPSIZE WHICH MEETS STABILITY CRITERION OF THE ADVECTION TERM
 (FOR PURE FINITE-DIFFERENCE OPTION, MIXELM=0) 
 = 0.8137E-01(WHEN MIN. R.F.=1)  AT K=   3, I=   2, J=  32


 TOTAL NUMBER OF POINT SOURCES/SINKS PRESENT IN THE FLOW MODEL =   240

 MAXIMUM STEPSIZE WHICH MEETS STABILITY CRITERION OF THE SINK & SOURCE TERM
 = 0.1000E+31(WHEN MIN. R.F.=1)  AT K=   0, I=   0, J=   0

 MAXIMUM STEPSIZE WHICH MEETS STABILITY CRITERION OF THE DISPERSION TERM
 = 0.5604E-02(WHEN MIN. R.F.=1)  AT K=   3, I=   2, J=  32
     1 CALLS TO GCG PACKAGE FOR TRANSPORT TIME STEP  10 IN FLOW TIME STEP  73 STRESS PERIOD   2
    12 TOTAL ITERATIONS



 >>>>>>>>>>>>>>>>>>>>>>>>>>>>>>>>>>>>>>>>>>>>>>>>>>>>>>>FOR COMPONENT NO. 01<<<<<<<<<<<<<<<<<<<<<<<<<<<<<<<<<<<<<<<<<<<<<<<<<<<<<<<


                                            -------------------------------------------
                                                      TRANSPORT STEP NO.   10
                                            -------------------------------------------

 TOTAL ELAPSED TIME SINCE BEGINNING OF SIMULATION =   73.89040    D   
 .....................................................................

                     CUMULATIVE MASS BUDGETS AT END OF TRANSPORT STEP   10, TIME STEP   73, STRESS PERIOD    2
                     ------------------------------------------------------------------------------------------

                                                             IN                           OUT
                                                      ----------------             ----------------
                               CONSTANT CONCENTRATION:    11262.16                   -6476.290    
                                        CONSTANT HEAD:    0.000000                    0.000000    
                               MASS STOR (FLOW MODEL):   0.1297220E-01              -0.3404157E-02
                                MASS STORAGE (SOLUTE):    8.240431                   -4794.121    
                            ---------------------------------------------------------------------------
                                              [TOTAL]:    11270.41     KG            -11270.42     KG  

                                                          NET (IN - OUT):  -0.3149360E-02
                                                   DISCREPANCY (PERCENT):  -0.2794360E-04
 
 SOLVING FOR HEAD 
 FLOW MODEL IS TRANSIENT
 FLOW MODEL CONTAINS CONSTANT-HEAD CELLS


 MAXIMUM STEPSIZE DURING WHICH ANY PARTICLE CANNOT MOVE MORE THAN ONE CELL
 = 0.1187    (WHEN MIN. R.F.=1)  AT K=   3, I=   2, J=  33

 MAXIMUM STEPSIZE WHICH MEETS STABILITY CRITERION OF THE ADVECTION TERM
 (FOR PURE FINITE-DIFFERENCE OPTION, MIXELM=0) 
 = 0.8137E-01(WHEN MIN. R.F.=1)  AT K=   3, I=   2, J=  32


 TOTAL NUMBER OF POINT SOURCES/SINKS PRESENT IN THE FLOW MODEL =   240

 MAXIMUM STEPSIZE WHICH MEETS STABILITY CRITERION OF THE SINK & SOURCE TERM
 = 0.1000E+31(WHEN MIN. R.F.=1)  AT K=   0, I=   0, J=   0

 MAXIMUM STEPSIZE WHICH MEETS STABILITY CRITERION OF THE DISPERSION TERM
 = 0.5604E-02(WHEN MIN. R.F.=1)  AT K=   3, I=   2, J=  32
     1 CALLS TO GCG PACKAGE FOR TRANSPORT TIME STEP  11 IN FLOW TIME STEP  73 STRESS PERIOD   2
    12 TOTAL ITERATIONS
 
 SOLVING FOR HEAD 
 FLOW MODEL IS TRANSIENT
 FLOW MODEL CONTAINS CONSTANT-HEAD CELLS


 MAXIMUM STEPSIZE DURING WHICH ANY PARTICLE CANNOT MOVE MORE THAN ONE CELL
 = 0.1187    (WHEN MIN. R.F.=1)  AT K=   3, I=   2, J=  33

 MAXIMUM STEPSIZE WHICH MEETS STABILITY CRITERION OF THE ADVECTION TERM
 (FOR PURE FINITE-DIFFERENCE OPTION, MIXELM=0) 
 = 0.8137E-01(WHEN MIN. R.F.=1)  AT K=   3, I=   2, J=  32


 TOTAL NUMBER OF POINT SOURCES/SINKS PRESENT IN THE FLOW MODEL =   240

 MAXIMUM STEPSIZE WHICH MEETS STABILITY CRITERION OF THE SINK & SOURCE TERM
 = 0.1000E+31(WHEN MIN. R.F.=1)  AT K=   0, I=   0, J=   0

 MAXIMUM STEPSIZE WHICH MEETS STABILITY CRITERION OF THE DISPERSION TERM
 = 0.5604E-02(WHEN MIN. R.F.=1)  AT K=   3, I=   2, J=  32
     1 CALLS TO GCG PACKAGE FOR TRANSPORT TIME STEP  12 IN FLOW TIME STEP  73 STRESS PERIOD   2
     6 TOTAL ITERATIONS
  MAXIMUM CONCENTRATION CHANGES FOR EACH ITERATION:
  MAX. CHANGE LAYER,ROW,COL MAX. CHANGE LAYER,ROW,COL MAX. CHANGE LAYER,ROW,COL MAX. CHANGE LAYER,ROW,COL MAX. CHANGE LAYER,ROW,COL
 ------------------------------------------------------------------------------------------------------------------------------------
   0.1270E-03 ( 16,  2, 54)  0.7053E-05 (  6,  2, 61)  0.1042E-05 (  5,  2, 57)  0.2453E-06 (  7,  2, 60)  0.1087E-06 (  4,  2, 33)
   0.4402E-07 (  3,  2, 32)


                                          ================================================
                                                         FROM TIME =   74.000     TO    75.000    

 
 SOLVING FOR HEAD 
 FLOW MODEL IS TRANSIENT
 FLOW MODEL CONTAINS CONSTANT-HEAD CELLS


 MAXIMUM STEPSIZE DURING WHICH ANY PARTICLE CANNOT MOVE MORE THAN ONE CELL
 = 0.1187    (WHEN MIN. R.F.=1)  AT K=   3, I=   2, J=  33

 MAXIMUM STEPSIZE WHICH MEETS STABILITY CRITERION OF THE ADVECTION TERM
 (FOR PURE FINITE-DIFFERENCE OPTION, MIXELM=0) 
 = 0.8137E-01(WHEN MIN. R.F.=1)  AT K=   3, I=   2, J=  32


 TOTAL NUMBER OF POINT SOURCES/SINKS PRESENT IN THE FLOW MODEL =   240

 MAXIMUM STEPSIZE WHICH MEETS STABILITY CRITERION OF THE SINK & SOURCE TERM
 = 0.1000E+31(WHEN MIN. R.F.=1)  AT K=   0, I=   0, J=   0

 MAXIMUM STEPSIZE WHICH MEETS STABILITY CRITERION OF THE DISPERSION TERM
 = 0.5604E-02(WHEN MIN. R.F.=1)  AT K=   3, I=   2, J=  32


     1 CALLS TO GCG PACKAGE FOR TRANSPORT TIME STEP   1 IN FLOW TIME STEP  74 STRESS PERIOD   2
    12 TOTAL ITERATIONS

 NO OUTPUT CONTROL FOR STRESS PERIOD    2   TIME STEP  74
 
 SOLVING FOR HEAD 
 FLOW MODEL IS TRANSIENT
 FLOW MODEL CONTAINS CONSTANT-HEAD CELLS


 MAXIMUM STEPSIZE DURING WHICH ANY PARTICLE CANNOT MOVE MORE THAN ONE CELL
 = 0.1187    (WHEN MIN. R.F.=1)  AT K=   3, I=   2, J=  33

 MAXIMUM STEPSIZE WHICH MEETS STABILITY CRITERION OF THE ADVECTION TERM
 (FOR PURE FINITE-DIFFERENCE OPTION, MIXELM=0) 
 = 0.8137E-01(WHEN MIN. R.F.=1)  AT K=   3, I=   2, J=  32


 TOTAL NUMBER OF POINT SOURCES/SINKS PRESENT IN THE FLOW MODEL =   240

 MAXIMUM STEPSIZE WHICH MEETS STABILITY CRITERION OF THE SINK & SOURCE TERM
 = 0.1000E+31(WHEN MIN. R.F.=1)  AT K=   0, I=   0, J=   0

 MAXIMUM STEPSIZE WHICH MEETS STABILITY CRITERION OF THE DISPERSION TERM
 = 0.5604E-02(WHEN MIN. R.F.=1)  AT K=   3, I=   2, J=  32
     1 CALLS TO GCG PACKAGE FOR TRANSPORT TIME STEP   2 IN FLOW TIME STEP  74 STRESS PERIOD   2
    12 TOTAL ITERATIONS
 
 SOLVING FOR HEAD 
 FLOW MODEL IS TRANSIENT
 FLOW MODEL CONTAINS CONSTANT-HEAD CELLS


 MAXIMUM STEPSIZE DURING WHICH ANY PARTICLE CANNOT MOVE MORE THAN ONE CELL
 = 0.1187    (WHEN MIN. R.F.=1)  AT K=   3, I=   2, J=  33

 MAXIMUM STEPSIZE WHICH MEETS STABILITY CRITERION OF THE ADVECTION TERM
 (FOR PURE FINITE-DIFFERENCE OPTION, MIXELM=0) 
 = 0.8137E-01(WHEN MIN. R.F.=1)  AT K=   3, I=   2, J=  32


 TOTAL NUMBER OF POINT SOURCES/SINKS PRESENT IN THE FLOW MODEL =   240

 MAXIMUM STEPSIZE WHICH MEETS STABILITY CRITERION OF THE SINK & SOURCE TERM
 = 0.1000E+31(WHEN MIN. R.F.=1)  AT K=   0, I=   0, J=   0

 MAXIMUM STEPSIZE WHICH MEETS STABILITY CRITERION OF THE DISPERSION TERM
 = 0.5604E-02(WHEN MIN. R.F.=1)  AT K=   3, I=   2, J=  32
     1 CALLS TO GCG PACKAGE FOR TRANSPORT TIME STEP   3 IN FLOW TIME STEP  74 STRESS PERIOD   2
    12 TOTAL ITERATIONS
 
 SOLVING FOR HEAD 
 FLOW MODEL IS TRANSIENT
 FLOW MODEL CONTAINS CONSTANT-HEAD CELLS


 MAXIMUM STEPSIZE DURING WHICH ANY PARTICLE CANNOT MOVE MORE THAN ONE CELL
 = 0.1187    (WHEN MIN. R.F.=1)  AT K=   3, I=   2, J=  33

 MAXIMUM STEPSIZE WHICH MEETS STABILITY CRITERION OF THE ADVECTION TERM
 (FOR PURE FINITE-DIFFERENCE OPTION, MIXELM=0) 
 = 0.8137E-01(WHEN MIN. R.F.=1)  AT K=   3, I=   2, J=  32


 TOTAL NUMBER OF POINT SOURCES/SINKS PRESENT IN THE FLOW MODEL =   240

 MAXIMUM STEPSIZE WHICH MEETS STABILITY CRITERION OF THE SINK & SOURCE TERM
 = 0.1000E+31(WHEN MIN. R.F.=1)  AT K=   0, I=   0, J=   0

 MAXIMUM STEPSIZE WHICH MEETS STABILITY CRITERION OF THE DISPERSION TERM
 = 0.5604E-02(WHEN MIN. R.F.=1)  AT K=   3, I=   2, J=  32
     1 CALLS TO GCG PACKAGE FOR TRANSPORT TIME STEP   4 IN FLOW TIME STEP  74 STRESS PERIOD   2
    12 TOTAL ITERATIONS
 
 SOLVING FOR HEAD 
 FLOW MODEL IS TRANSIENT
 FLOW MODEL CONTAINS CONSTANT-HEAD CELLS


 MAXIMUM STEPSIZE DURING WHICH ANY PARTICLE CANNOT MOVE MORE THAN ONE CELL
 = 0.1187    (WHEN MIN. R.F.=1)  AT K=   3, I=   2, J=  33

 MAXIMUM STEPSIZE WHICH MEETS STABILITY CRITERION OF THE ADVECTION TERM
 (FOR PURE FINITE-DIFFERENCE OPTION, MIXELM=0) 
 = 0.8137E-01(WHEN MIN. R.F.=1)  AT K=   3, I=   2, J=  32


 TOTAL NUMBER OF POINT SOURCES/SINKS PRESENT IN THE FLOW MODEL =   240

 MAXIMUM STEPSIZE WHICH MEETS STABILITY CRITERION OF THE SINK & SOURCE TERM
 = 0.1000E+31(WHEN MIN. R.F.=1)  AT K=   0, I=   0, J=   0

 MAXIMUM STEPSIZE WHICH MEETS STABILITY CRITERION OF THE DISPERSION TERM
 = 0.5604E-02(WHEN MIN. R.F.=1)  AT K=   3, I=   2, J=  32
     1 CALLS TO GCG PACKAGE FOR TRANSPORT TIME STEP   5 IN FLOW TIME STEP  74 STRESS PERIOD   2
    12 TOTAL ITERATIONS
 
 SOLVING FOR HEAD 
 FLOW MODEL IS TRANSIENT
 FLOW MODEL CONTAINS CONSTANT-HEAD CELLS


 MAXIMUM STEPSIZE DURING WHICH ANY PARTICLE CANNOT MOVE MORE THAN ONE CELL
 = 0.1187    (WHEN MIN. R.F.=1)  AT K=   3, I=   2, J=  33

 MAXIMUM STEPSIZE WHICH MEETS STABILITY CRITERION OF THE ADVECTION TERM
 (FOR PURE FINITE-DIFFERENCE OPTION, MIXELM=0) 
 = 0.8137E-01(WHEN MIN. R.F.=1)  AT K=   3, I=   2, J=  32


 TOTAL NUMBER OF POINT SOURCES/SINKS PRESENT IN THE FLOW MODEL =   240

 MAXIMUM STEPSIZE WHICH MEETS STABILITY CRITERION OF THE SINK & SOURCE TERM
 = 0.1000E+31(WHEN MIN. R.F.=1)  AT K=   0, I=   0, J=   0

 MAXIMUM STEPSIZE WHICH MEETS STABILITY CRITERION OF THE DISPERSION TERM
 = 0.5604E-02(WHEN MIN. R.F.=1)  AT K=   3, I=   2, J=  32
     1 CALLS TO GCG PACKAGE FOR TRANSPORT TIME STEP   6 IN FLOW TIME STEP  74 STRESS PERIOD   2
    12 TOTAL ITERATIONS
 
 SOLVING FOR HEAD 
 FLOW MODEL IS TRANSIENT
 FLOW MODEL CONTAINS CONSTANT-HEAD CELLS


 MAXIMUM STEPSIZE DURING WHICH ANY PARTICLE CANNOT MOVE MORE THAN ONE CELL
 = 0.1187    (WHEN MIN. R.F.=1)  AT K=   3, I=   2, J=  33

 MAXIMUM STEPSIZE WHICH MEETS STABILITY CRITERION OF THE ADVECTION TERM
 (FOR PURE FINITE-DIFFERENCE OPTION, MIXELM=0) 
 = 0.8137E-01(WHEN MIN. R.F.=1)  AT K=   3, I=   2, J=  32


 TOTAL NUMBER OF POINT SOURCES/SINKS PRESENT IN THE FLOW MODEL =   240

 MAXIMUM STEPSIZE WHICH MEETS STABILITY CRITERION OF THE SINK & SOURCE TERM
 = 0.1000E+31(WHEN MIN. R.F.=1)  AT K=   0, I=   0, J=   0

 MAXIMUM STEPSIZE WHICH MEETS STABILITY CRITERION OF THE DISPERSION TERM
 = 0.5604E-02(WHEN MIN. R.F.=1)  AT K=   3, I=   2, J=  32
     1 CALLS TO GCG PACKAGE FOR TRANSPORT TIME STEP   7 IN FLOW TIME STEP  74 STRESS PERIOD   2
    12 TOTAL ITERATIONS
 
 SOLVING FOR HEAD 
 FLOW MODEL IS TRANSIENT
 FLOW MODEL CONTAINS CONSTANT-HEAD CELLS


 MAXIMUM STEPSIZE DURING WHICH ANY PARTICLE CANNOT MOVE MORE THAN ONE CELL
 = 0.1187    (WHEN MIN. R.F.=1)  AT K=   3, I=   2, J=  33

 MAXIMUM STEPSIZE WHICH MEETS STABILITY CRITERION OF THE ADVECTION TERM
 (FOR PURE FINITE-DIFFERENCE OPTION, MIXELM=0) 
 = 0.8137E-01(WHEN MIN. R.F.=1)  AT K=   3, I=   2, J=  32


 TOTAL NUMBER OF POINT SOURCES/SINKS PRESENT IN THE FLOW MODEL =   240

 MAXIMUM STEPSIZE WHICH MEETS STABILITY CRITERION OF THE SINK & SOURCE TERM
 = 0.1000E+31(WHEN MIN. R.F.=1)  AT K=   0, I=   0, J=   0

 MAXIMUM STEPSIZE WHICH MEETS STABILITY CRITERION OF THE DISPERSION TERM
 = 0.5604E-02(WHEN MIN. R.F.=1)  AT K=   3, I=   2, J=  32
     1 CALLS TO GCG PACKAGE FOR TRANSPORT TIME STEP   8 IN FLOW TIME STEP  74 STRESS PERIOD   2
    12 TOTAL ITERATIONS
 
 SOLVING FOR HEAD 
 FLOW MODEL IS TRANSIENT
 FLOW MODEL CONTAINS CONSTANT-HEAD CELLS


 MAXIMUM STEPSIZE DURING WHICH ANY PARTICLE CANNOT MOVE MORE THAN ONE CELL
 = 0.1187    (WHEN MIN. R.F.=1)  AT K=   3, I=   2, J=  33

 MAXIMUM STEPSIZE WHICH MEETS STABILITY CRITERION OF THE ADVECTION TERM
 (FOR PURE FINITE-DIFFERENCE OPTION, MIXELM=0) 
 = 0.8137E-01(WHEN MIN. R.F.=1)  AT K=   3, I=   2, J=  32


 TOTAL NUMBER OF POINT SOURCES/SINKS PRESENT IN THE FLOW MODEL =   240

 MAXIMUM STEPSIZE WHICH MEETS STABILITY CRITERION OF THE SINK & SOURCE TERM
 = 0.1000E+31(WHEN MIN. R.F.=1)  AT K=   0, I=   0, J=   0

 MAXIMUM STEPSIZE WHICH MEETS STABILITY CRITERION OF THE DISPERSION TERM
 = 0.5604E-02(WHEN MIN. R.F.=1)  AT K=   3, I=   2, J=  32
     1 CALLS TO GCG PACKAGE FOR TRANSPORT TIME STEP   9 IN FLOW TIME STEP  74 STRESS PERIOD   2
    12 TOTAL ITERATIONS
 
 SOLVING FOR HEAD 
 FLOW MODEL IS TRANSIENT
 FLOW MODEL CONTAINS CONSTANT-HEAD CELLS


 MAXIMUM STEPSIZE DURING WHICH ANY PARTICLE CANNOT MOVE MORE THAN ONE CELL
 = 0.1187    (WHEN MIN. R.F.=1)  AT K=   3, I=   2, J=  33

 MAXIMUM STEPSIZE WHICH MEETS STABILITY CRITERION OF THE ADVECTION TERM
 (FOR PURE FINITE-DIFFERENCE OPTION, MIXELM=0) 
 = 0.8137E-01(WHEN MIN. R.F.=1)  AT K=   3, I=   2, J=  32


 TOTAL NUMBER OF POINT SOURCES/SINKS PRESENT IN THE FLOW MODEL =   240

 MAXIMUM STEPSIZE WHICH MEETS STABILITY CRITERION OF THE SINK & SOURCE TERM
 = 0.1000E+31(WHEN MIN. R.F.=1)  AT K=   0, I=   0, J=   0

 MAXIMUM STEPSIZE WHICH MEETS STABILITY CRITERION OF THE DISPERSION TERM
 = 0.5604E-02(WHEN MIN. R.F.=1)  AT K=   3, I=   2, J=  32
     1 CALLS TO GCG PACKAGE FOR TRANSPORT TIME STEP  10 IN FLOW TIME STEP  74 STRESS PERIOD   2
    12 TOTAL ITERATIONS



 >>>>>>>>>>>>>>>>>>>>>>>>>>>>>>>>>>>>>>>>>>>>>>>>>>>>>>>FOR COMPONENT NO. 01<<<<<<<<<<<<<<<<<<<<<<<<<<<<<<<<<<<<<<<<<<<<<<<<<<<<<<<


                                            -------------------------------------------
                                                      TRANSPORT STEP NO.   10
                                            -------------------------------------------

 TOTAL ELAPSED TIME SINCE BEGINNING OF SIMULATION =   74.89039    D   
 .....................................................................

                     CUMULATIVE MASS BUDGETS AT END OF TRANSPORT STEP   10, TIME STEP   74, STRESS PERIOD    2
                     ------------------------------------------------------------------------------------------

                                                             IN                           OUT
                                                      ----------------             ----------------
                               CONSTANT CONCENTRATION:    11368.27                   -6569.153    
                                        CONSTANT HEAD:    0.000000                    0.000000    
                               MASS STOR (FLOW MODEL):   0.1298685E-01              -0.3407007E-02
                                MASS STORAGE (SOLUTE):    8.464295                   -4807.595    
                            ---------------------------------------------------------------------------
                                              [TOTAL]:    11376.75     KG            -11376.75     KG  

                                                          NET (IN - OUT):  -0.3163294E-02
                                                   DISCREPANCY (PERCENT):  -0.2780490E-04
 
 SOLVING FOR HEAD 
 FLOW MODEL IS TRANSIENT
 FLOW MODEL CONTAINS CONSTANT-HEAD CELLS


 MAXIMUM STEPSIZE DURING WHICH ANY PARTICLE CANNOT MOVE MORE THAN ONE CELL
 = 0.1187    (WHEN MIN. R.F.=1)  AT K=   3, I=   2, J=  33

 MAXIMUM STEPSIZE WHICH MEETS STABILITY CRITERION OF THE ADVECTION TERM
 (FOR PURE FINITE-DIFFERENCE OPTION, MIXELM=0) 
 = 0.8137E-01(WHEN MIN. R.F.=1)  AT K=   3, I=   2, J=  32


 TOTAL NUMBER OF POINT SOURCES/SINKS PRESENT IN THE FLOW MODEL =   240

 MAXIMUM STEPSIZE WHICH MEETS STABILITY CRITERION OF THE SINK & SOURCE TERM
 = 0.1000E+31(WHEN MIN. R.F.=1)  AT K=   0, I=   0, J=   0

 MAXIMUM STEPSIZE WHICH MEETS STABILITY CRITERION OF THE DISPERSION TERM
 = 0.5604E-02(WHEN MIN. R.F.=1)  AT K=   3, I=   2, J=  32
     1 CALLS TO GCG PACKAGE FOR TRANSPORT TIME STEP  11 IN FLOW TIME STEP  74 STRESS PERIOD   2
    12 TOTAL ITERATIONS
 
 SOLVING FOR HEAD 
 FLOW MODEL IS TRANSIENT
 FLOW MODEL CONTAINS CONSTANT-HEAD CELLS


 MAXIMUM STEPSIZE DURING WHICH ANY PARTICLE CANNOT MOVE MORE THAN ONE CELL
 = 0.1187    (WHEN MIN. R.F.=1)  AT K=   3, I=   2, J=  33

 MAXIMUM STEPSIZE WHICH MEETS STABILITY CRITERION OF THE ADVECTION TERM
 (FOR PURE FINITE-DIFFERENCE OPTION, MIXELM=0) 
 = 0.8137E-01(WHEN MIN. R.F.=1)  AT K=   3, I=   2, J=  32


 TOTAL NUMBER OF POINT SOURCES/SINKS PRESENT IN THE FLOW MODEL =   240

 MAXIMUM STEPSIZE WHICH MEETS STABILITY CRITERION OF THE SINK & SOURCE TERM
 = 0.1000E+31(WHEN MIN. R.F.=1)  AT K=   0, I=   0, J=   0

 MAXIMUM STEPSIZE WHICH MEETS STABILITY CRITERION OF THE DISPERSION TERM
 = 0.5604E-02(WHEN MIN. R.F.=1)  AT K=   3, I=   2, J=  32
     1 CALLS TO GCG PACKAGE FOR TRANSPORT TIME STEP  12 IN FLOW TIME STEP  74 STRESS PERIOD   2
     6 TOTAL ITERATIONS
  MAXIMUM CONCENTRATION CHANGES FOR EACH ITERATION:
  MAX. CHANGE LAYER,ROW,COL MAX. CHANGE LAYER,ROW,COL MAX. CHANGE LAYER,ROW,COL MAX. CHANGE LAYER,ROW,COL MAX. CHANGE LAYER,ROW,COL
 ------------------------------------------------------------------------------------------------------------------------------------
   0.1267E-03 ( 16,  2, 54)  0.6851E-05 (  6,  2, 61)  0.1010E-05 (  5,  2, 57)  0.2347E-06 (  7,  2, 60)  0.1029E-06 (  4,  2, 32)
   0.4198E-07 (  3,  2, 32)


                                          ================================================
                                                         FROM TIME =   75.000     TO    76.000    

 
 SOLVING FOR HEAD 
 FLOW MODEL IS TRANSIENT
 FLOW MODEL CONTAINS CONSTANT-HEAD CELLS


 MAXIMUM STEPSIZE DURING WHICH ANY PARTICLE CANNOT MOVE MORE THAN ONE CELL
 = 0.1187    (WHEN MIN. R.F.=1)  AT K=   3, I=   2, J=  33

 MAXIMUM STEPSIZE WHICH MEETS STABILITY CRITERION OF THE ADVECTION TERM
 (FOR PURE FINITE-DIFFERENCE OPTION, MIXELM=0) 
 = 0.8137E-01(WHEN MIN. R.F.=1)  AT K=   3, I=   2, J=  32


 TOTAL NUMBER OF POINT SOURCES/SINKS PRESENT IN THE FLOW MODEL =   240

 MAXIMUM STEPSIZE WHICH MEETS STABILITY CRITERION OF THE SINK & SOURCE TERM
 = 0.1000E+31(WHEN MIN. R.F.=1)  AT K=   0, I=   0, J=   0

 MAXIMUM STEPSIZE WHICH MEETS STABILITY CRITERION OF THE DISPERSION TERM
 = 0.5604E-02(WHEN MIN. R.F.=1)  AT K=   3, I=   2, J=  32


     1 CALLS TO GCG PACKAGE FOR TRANSPORT TIME STEP   1 IN FLOW TIME STEP  75 STRESS PERIOD   2
    12 TOTAL ITERATIONS

 NO OUTPUT CONTROL FOR STRESS PERIOD    2   TIME STEP  75
 
 SOLVING FOR HEAD 
 FLOW MODEL IS TRANSIENT
 FLOW MODEL CONTAINS CONSTANT-HEAD CELLS


 MAXIMUM STEPSIZE DURING WHICH ANY PARTICLE CANNOT MOVE MORE THAN ONE CELL
 = 0.1187    (WHEN MIN. R.F.=1)  AT K=   3, I=   2, J=  33

 MAXIMUM STEPSIZE WHICH MEETS STABILITY CRITERION OF THE ADVECTION TERM
 (FOR PURE FINITE-DIFFERENCE OPTION, MIXELM=0) 
 = 0.8137E-01(WHEN MIN. R.F.=1)  AT K=   3, I=   2, J=  32


 TOTAL NUMBER OF POINT SOURCES/SINKS PRESENT IN THE FLOW MODEL =   240

 MAXIMUM STEPSIZE WHICH MEETS STABILITY CRITERION OF THE SINK & SOURCE TERM
 = 0.1000E+31(WHEN MIN. R.F.=1)  AT K=   0, I=   0, J=   0

 MAXIMUM STEPSIZE WHICH MEETS STABILITY CRITERION OF THE DISPERSION TERM
 = 0.5604E-02(WHEN MIN. R.F.=1)  AT K=   3, I=   2, J=  32
     1 CALLS TO GCG PACKAGE FOR TRANSPORT TIME STEP   2 IN FLOW TIME STEP  75 STRESS PERIOD   2
    12 TOTAL ITERATIONS
 
 SOLVING FOR HEAD 
 FLOW MODEL IS TRANSIENT
 FLOW MODEL CONTAINS CONSTANT-HEAD CELLS


 MAXIMUM STEPSIZE DURING WHICH ANY PARTICLE CANNOT MOVE MORE THAN ONE CELL
 = 0.1187    (WHEN MIN. R.F.=1)  AT K=   3, I=   2, J=  33

 MAXIMUM STEPSIZE WHICH MEETS STABILITY CRITERION OF THE ADVECTION TERM
 (FOR PURE FINITE-DIFFERENCE OPTION, MIXELM=0) 
 = 0.8137E-01(WHEN MIN. R.F.=1)  AT K=   3, I=   2, J=  32


 TOTAL NUMBER OF POINT SOURCES/SINKS PRESENT IN THE FLOW MODEL =   240

 MAXIMUM STEPSIZE WHICH MEETS STABILITY CRITERION OF THE SINK & SOURCE TERM
 = 0.1000E+31(WHEN MIN. R.F.=1)  AT K=   0, I=   0, J=   0

 MAXIMUM STEPSIZE WHICH MEETS STABILITY CRITERION OF THE DISPERSION TERM
 = 0.5604E-02(WHEN MIN. R.F.=1)  AT K=   3, I=   2, J=  32
     1 CALLS TO GCG PACKAGE FOR TRANSPORT TIME STEP   3 IN FLOW TIME STEP  75 STRESS PERIOD   2
    12 TOTAL ITERATIONS
 
 SOLVING FOR HEAD 
 FLOW MODEL IS TRANSIENT
 FLOW MODEL CONTAINS CONSTANT-HEAD CELLS


 MAXIMUM STEPSIZE DURING WHICH ANY PARTICLE CANNOT MOVE MORE THAN ONE CELL
 = 0.1187    (WHEN MIN. R.F.=1)  AT K=   3, I=   2, J=  33

 MAXIMUM STEPSIZE WHICH MEETS STABILITY CRITERION OF THE ADVECTION TERM
 (FOR PURE FINITE-DIFFERENCE OPTION, MIXELM=0) 
 = 0.8137E-01(WHEN MIN. R.F.=1)  AT K=   3, I=   2, J=  32


 TOTAL NUMBER OF POINT SOURCES/SINKS PRESENT IN THE FLOW MODEL =   240

 MAXIMUM STEPSIZE WHICH MEETS STABILITY CRITERION OF THE SINK & SOURCE TERM
 = 0.1000E+31(WHEN MIN. R.F.=1)  AT K=   0, I=   0, J=   0

 MAXIMUM STEPSIZE WHICH MEETS STABILITY CRITERION OF THE DISPERSION TERM
 = 0.5604E-02(WHEN MIN. R.F.=1)  AT K=   3, I=   2, J=  32
     1 CALLS TO GCG PACKAGE FOR TRANSPORT TIME STEP   4 IN FLOW TIME STEP  75 STRESS PERIOD   2
    12 TOTAL ITERATIONS
 
 SOLVING FOR HEAD 
 FLOW MODEL IS TRANSIENT
 FLOW MODEL CONTAINS CONSTANT-HEAD CELLS


 MAXIMUM STEPSIZE DURING WHICH ANY PARTICLE CANNOT MOVE MORE THAN ONE CELL
 = 0.1187    (WHEN MIN. R.F.=1)  AT K=   3, I=   2, J=  33

 MAXIMUM STEPSIZE WHICH MEETS STABILITY CRITERION OF THE ADVECTION TERM
 (FOR PURE FINITE-DIFFERENCE OPTION, MIXELM=0) 
 = 0.8137E-01(WHEN MIN. R.F.=1)  AT K=   3, I=   2, J=  32


 TOTAL NUMBER OF POINT SOURCES/SINKS PRESENT IN THE FLOW MODEL =   240

 MAXIMUM STEPSIZE WHICH MEETS STABILITY CRITERION OF THE SINK & SOURCE TERM
 = 0.1000E+31(WHEN MIN. R.F.=1)  AT K=   0, I=   0, J=   0

 MAXIMUM STEPSIZE WHICH MEETS STABILITY CRITERION OF THE DISPERSION TERM
 = 0.5604E-02(WHEN MIN. R.F.=1)  AT K=   3, I=   2, J=  32
     1 CALLS TO GCG PACKAGE FOR TRANSPORT TIME STEP   5 IN FLOW TIME STEP  75 STRESS PERIOD   2
    12 TOTAL ITERATIONS
 
 SOLVING FOR HEAD 
 FLOW MODEL IS TRANSIENT
 FLOW MODEL CONTAINS CONSTANT-HEAD CELLS


 MAXIMUM STEPSIZE DURING WHICH ANY PARTICLE CANNOT MOVE MORE THAN ONE CELL
 = 0.1187    (WHEN MIN. R.F.=1)  AT K=   3, I=   2, J=  33

 MAXIMUM STEPSIZE WHICH MEETS STABILITY CRITERION OF THE ADVECTION TERM
 (FOR PURE FINITE-DIFFERENCE OPTION, MIXELM=0) 
 = 0.8137E-01(WHEN MIN. R.F.=1)  AT K=   3, I=   2, J=  32


 TOTAL NUMBER OF POINT SOURCES/SINKS PRESENT IN THE FLOW MODEL =   240

 MAXIMUM STEPSIZE WHICH MEETS STABILITY CRITERION OF THE SINK & SOURCE TERM
 = 0.1000E+31(WHEN MIN. R.F.=1)  AT K=   0, I=   0, J=   0

 MAXIMUM STEPSIZE WHICH MEETS STABILITY CRITERION OF THE DISPERSION TERM
 = 0.5604E-02(WHEN MIN. R.F.=1)  AT K=   3, I=   2, J=  32
     1 CALLS TO GCG PACKAGE FOR TRANSPORT TIME STEP   6 IN FLOW TIME STEP  75 STRESS PERIOD   2
    12 TOTAL ITERATIONS
 
 SOLVING FOR HEAD 
 FLOW MODEL IS TRANSIENT
 FLOW MODEL CONTAINS CONSTANT-HEAD CELLS


 MAXIMUM STEPSIZE DURING WHICH ANY PARTICLE CANNOT MOVE MORE THAN ONE CELL
 = 0.1187    (WHEN MIN. R.F.=1)  AT K=   3, I=   2, J=  33

 MAXIMUM STEPSIZE WHICH MEETS STABILITY CRITERION OF THE ADVECTION TERM
 (FOR PURE FINITE-DIFFERENCE OPTION, MIXELM=0) 
 = 0.8136E-01(WHEN MIN. R.F.=1)  AT K=   3, I=   2, J=  32


 TOTAL NUMBER OF POINT SOURCES/SINKS PRESENT IN THE FLOW MODEL =   240

 MAXIMUM STEPSIZE WHICH MEETS STABILITY CRITERION OF THE SINK & SOURCE TERM
 = 0.1000E+31(WHEN MIN. R.F.=1)  AT K=   0, I=   0, J=   0

 MAXIMUM STEPSIZE WHICH MEETS STABILITY CRITERION OF THE DISPERSION TERM
 = 0.5604E-02(WHEN MIN. R.F.=1)  AT K=   3, I=   2, J=  32
     1 CALLS TO GCG PACKAGE FOR TRANSPORT TIME STEP   7 IN FLOW TIME STEP  75 STRESS PERIOD   2
    12 TOTAL ITERATIONS
 
 SOLVING FOR HEAD 
 FLOW MODEL IS TRANSIENT
 FLOW MODEL CONTAINS CONSTANT-HEAD CELLS


 MAXIMUM STEPSIZE DURING WHICH ANY PARTICLE CANNOT MOVE MORE THAN ONE CELL
 = 0.1187    (WHEN MIN. R.F.=1)  AT K=   3, I=   2, J=  33

 MAXIMUM STEPSIZE WHICH MEETS STABILITY CRITERION OF THE ADVECTION TERM
 (FOR PURE FINITE-DIFFERENCE OPTION, MIXELM=0) 
 = 0.8136E-01(WHEN MIN. R.F.=1)  AT K=   3, I=   2, J=  32


 TOTAL NUMBER OF POINT SOURCES/SINKS PRESENT IN THE FLOW MODEL =   240

 MAXIMUM STEPSIZE WHICH MEETS STABILITY CRITERION OF THE SINK & SOURCE TERM
 = 0.1000E+31(WHEN MIN. R.F.=1)  AT K=   0, I=   0, J=   0

 MAXIMUM STEPSIZE WHICH MEETS STABILITY CRITERION OF THE DISPERSION TERM
 = 0.5604E-02(WHEN MIN. R.F.=1)  AT K=   3, I=   2, J=  32
     1 CALLS TO GCG PACKAGE FOR TRANSPORT TIME STEP   8 IN FLOW TIME STEP  75 STRESS PERIOD   2
    12 TOTAL ITERATIONS
 
 SOLVING FOR HEAD 
 FLOW MODEL IS TRANSIENT
 FLOW MODEL CONTAINS CONSTANT-HEAD CELLS


 MAXIMUM STEPSIZE DURING WHICH ANY PARTICLE CANNOT MOVE MORE THAN ONE CELL
 = 0.1187    (WHEN MIN. R.F.=1)  AT K=   3, I=   2, J=  33

 MAXIMUM STEPSIZE WHICH MEETS STABILITY CRITERION OF THE ADVECTION TERM
 (FOR PURE FINITE-DIFFERENCE OPTION, MIXELM=0) 
 = 0.8136E-01(WHEN MIN. R.F.=1)  AT K=   3, I=   2, J=  32


 TOTAL NUMBER OF POINT SOURCES/SINKS PRESENT IN THE FLOW MODEL =   240

 MAXIMUM STEPSIZE WHICH MEETS STABILITY CRITERION OF THE SINK & SOURCE TERM
 = 0.1000E+31(WHEN MIN. R.F.=1)  AT K=   0, I=   0, J=   0

 MAXIMUM STEPSIZE WHICH MEETS STABILITY CRITERION OF THE DISPERSION TERM
 = 0.5604E-02(WHEN MIN. R.F.=1)  AT K=   3, I=   2, J=  32
     1 CALLS TO GCG PACKAGE FOR TRANSPORT TIME STEP   9 IN FLOW TIME STEP  75 STRESS PERIOD   2
    12 TOTAL ITERATIONS
 
 SOLVING FOR HEAD 
 FLOW MODEL IS TRANSIENT
 FLOW MODEL CONTAINS CONSTANT-HEAD CELLS


 MAXIMUM STEPSIZE DURING WHICH ANY PARTICLE CANNOT MOVE MORE THAN ONE CELL
 = 0.1187    (WHEN MIN. R.F.=1)  AT K=   3, I=   2, J=  33

 MAXIMUM STEPSIZE WHICH MEETS STABILITY CRITERION OF THE ADVECTION TERM
 (FOR PURE FINITE-DIFFERENCE OPTION, MIXELM=0) 
 = 0.8136E-01(WHEN MIN. R.F.=1)  AT K=   3, I=   2, J=  32


 TOTAL NUMBER OF POINT SOURCES/SINKS PRESENT IN THE FLOW MODEL =   240

 MAXIMUM STEPSIZE WHICH MEETS STABILITY CRITERION OF THE SINK & SOURCE TERM
 = 0.1000E+31(WHEN MIN. R.F.=1)  AT K=   0, I=   0, J=   0

 MAXIMUM STEPSIZE WHICH MEETS STABILITY CRITERION OF THE DISPERSION TERM
 = 0.5604E-02(WHEN MIN. R.F.=1)  AT K=   3, I=   2, J=  32
     1 CALLS TO GCG PACKAGE FOR TRANSPORT TIME STEP  10 IN FLOW TIME STEP  75 STRESS PERIOD   2
    12 TOTAL ITERATIONS



 >>>>>>>>>>>>>>>>>>>>>>>>>>>>>>>>>>>>>>>>>>>>>>>>>>>>>>>FOR COMPONENT NO. 01<<<<<<<<<<<<<<<<<<<<<<<<<<<<<<<<<<<<<<<<<<<<<<<<<<<<<<<


                                            -------------------------------------------
                                                      TRANSPORT STEP NO.   10
                                            -------------------------------------------

 TOTAL ELAPSED TIME SINCE BEGINNING OF SIMULATION =   75.89037    D   
 .....................................................................

                     CUMULATIVE MASS BUDGETS AT END OF TRANSPORT STEP   10, TIME STEP   75, STRESS PERIOD    2
                     ------------------------------------------------------------------------------------------

                                                             IN                           OUT
                                                      ----------------             ----------------
                               CONSTANT CONCENTRATION:    11474.20                   -6662.030    
                                        CONSTANT HEAD:    0.000000                    0.000000    
                               MASS STOR (FLOW MODEL):   0.1300135E-01              -0.3409753E-02
                                MASS STORAGE (SOLUTE):    8.684260                   -4820.867    
                            ---------------------------------------------------------------------------
                                              [TOTAL]:    11482.90     KG            -11482.90     KG  

                                                          NET (IN - OUT):  -0.3176057E-02
                                                   DISCREPANCY (PERCENT):  -0.2765902E-04
 
 SOLVING FOR HEAD 
 FLOW MODEL IS TRANSIENT
 FLOW MODEL CONTAINS CONSTANT-HEAD CELLS


 MAXIMUM STEPSIZE DURING WHICH ANY PARTICLE CANNOT MOVE MORE THAN ONE CELL
 = 0.1187    (WHEN MIN. R.F.=1)  AT K=   3, I=   2, J=  33

 MAXIMUM STEPSIZE WHICH MEETS STABILITY CRITERION OF THE ADVECTION TERM
 (FOR PURE FINITE-DIFFERENCE OPTION, MIXELM=0) 
 = 0.8136E-01(WHEN MIN. R.F.=1)  AT K=   3, I=   2, J=  32


 TOTAL NUMBER OF POINT SOURCES/SINKS PRESENT IN THE FLOW MODEL =   240

 MAXIMUM STEPSIZE WHICH MEETS STABILITY CRITERION OF THE SINK & SOURCE TERM
 = 0.1000E+31(WHEN MIN. R.F.=1)  AT K=   0, I=   0, J=   0

 MAXIMUM STEPSIZE WHICH MEETS STABILITY CRITERION OF THE DISPERSION TERM
 = 0.5604E-02(WHEN MIN. R.F.=1)  AT K=   3, I=   2, J=  32
     1 CALLS TO GCG PACKAGE FOR TRANSPORT TIME STEP  11 IN FLOW TIME STEP  75 STRESS PERIOD   2
    12 TOTAL ITERATIONS
 
 SOLVING FOR HEAD 
 FLOW MODEL IS TRANSIENT
 FLOW MODEL CONTAINS CONSTANT-HEAD CELLS


 MAXIMUM STEPSIZE DURING WHICH ANY PARTICLE CANNOT MOVE MORE THAN ONE CELL
 = 0.1187    (WHEN MIN. R.F.=1)  AT K=   3, I=   2, J=  33

 MAXIMUM STEPSIZE WHICH MEETS STABILITY CRITERION OF THE ADVECTION TERM
 (FOR PURE FINITE-DIFFERENCE OPTION, MIXELM=0) 
 = 0.8136E-01(WHEN MIN. R.F.=1)  AT K=   3, I=   2, J=  32


 TOTAL NUMBER OF POINT SOURCES/SINKS PRESENT IN THE FLOW MODEL =   240

 MAXIMUM STEPSIZE WHICH MEETS STABILITY CRITERION OF THE SINK & SOURCE TERM
 = 0.1000E+31(WHEN MIN. R.F.=1)  AT K=   0, I=   0, J=   0

 MAXIMUM STEPSIZE WHICH MEETS STABILITY CRITERION OF THE DISPERSION TERM
 = 0.5604E-02(WHEN MIN. R.F.=1)  AT K=   3, I=   2, J=  32
     1 CALLS TO GCG PACKAGE FOR TRANSPORT TIME STEP  12 IN FLOW TIME STEP  75 STRESS PERIOD   2
     5 TOTAL ITERATIONS
  MAXIMUM CONCENTRATION CHANGES FOR EACH ITERATION:
  MAX. CHANGE LAYER,ROW,COL MAX. CHANGE LAYER,ROW,COL MAX. CHANGE LAYER,ROW,COL MAX. CHANGE LAYER,ROW,COL MAX. CHANGE LAYER,ROW,COL
 ------------------------------------------------------------------------------------------------------------------------------------
   0.1263E-03 ( 16,  2, 54)  0.6655E-05 (  6,  2, 61)  0.9797E-06 (  5,  2, 57)  0.2240E-06 (  7,  2, 60)  0.9699E-07 (  4,  2, 32)


                                          ================================================
                                                         FROM TIME =   76.000     TO    77.000    

 
 SOLVING FOR HEAD 
 FLOW MODEL IS TRANSIENT
 FLOW MODEL CONTAINS CONSTANT-HEAD CELLS


 MAXIMUM STEPSIZE DURING WHICH ANY PARTICLE CANNOT MOVE MORE THAN ONE CELL
 = 0.1187    (WHEN MIN. R.F.=1)  AT K=   3, I=   2, J=  33

 MAXIMUM STEPSIZE WHICH MEETS STABILITY CRITERION OF THE ADVECTION TERM
 (FOR PURE FINITE-DIFFERENCE OPTION, MIXELM=0) 
 = 0.8136E-01(WHEN MIN. R.F.=1)  AT K=   3, I=   2, J=  32


 TOTAL NUMBER OF POINT SOURCES/SINKS PRESENT IN THE FLOW MODEL =   240

 MAXIMUM STEPSIZE WHICH MEETS STABILITY CRITERION OF THE SINK & SOURCE TERM
 = 0.1000E+31(WHEN MIN. R.F.=1)  AT K=   0, I=   0, J=   0

 MAXIMUM STEPSIZE WHICH MEETS STABILITY CRITERION OF THE DISPERSION TERM
 = 0.5604E-02(WHEN MIN. R.F.=1)  AT K=   3, I=   2, J=  32


     1 CALLS TO GCG PACKAGE FOR TRANSPORT TIME STEP   1 IN FLOW TIME STEP  76 STRESS PERIOD   2
    11 TOTAL ITERATIONS

 NO OUTPUT CONTROL FOR STRESS PERIOD    2   TIME STEP  76
 
 SOLVING FOR HEAD 
 FLOW MODEL IS TRANSIENT
 FLOW MODEL CONTAINS CONSTANT-HEAD CELLS


 MAXIMUM STEPSIZE DURING WHICH ANY PARTICLE CANNOT MOVE MORE THAN ONE CELL
 = 0.1187    (WHEN MIN. R.F.=1)  AT K=   3, I=   2, J=  33

 MAXIMUM STEPSIZE WHICH MEETS STABILITY CRITERION OF THE ADVECTION TERM
 (FOR PURE FINITE-DIFFERENCE OPTION, MIXELM=0) 
 = 0.8136E-01(WHEN MIN. R.F.=1)  AT K=   3, I=   2, J=  32


 TOTAL NUMBER OF POINT SOURCES/SINKS PRESENT IN THE FLOW MODEL =   240

 MAXIMUM STEPSIZE WHICH MEETS STABILITY CRITERION OF THE SINK & SOURCE TERM
 = 0.1000E+31(WHEN MIN. R.F.=1)  AT K=   0, I=   0, J=   0

 MAXIMUM STEPSIZE WHICH MEETS STABILITY CRITERION OF THE DISPERSION TERM
 = 0.5604E-02(WHEN MIN. R.F.=1)  AT K=   3, I=   2, J=  32
     1 CALLS TO GCG PACKAGE FOR TRANSPORT TIME STEP   2 IN FLOW TIME STEP  76 STRESS PERIOD   2
    11 TOTAL ITERATIONS
 
 SOLVING FOR HEAD 
 FLOW MODEL IS TRANSIENT
 FLOW MODEL CONTAINS CONSTANT-HEAD CELLS


 MAXIMUM STEPSIZE DURING WHICH ANY PARTICLE CANNOT MOVE MORE THAN ONE CELL
 = 0.1187    (WHEN MIN. R.F.=1)  AT K=   3, I=   2, J=  33

 MAXIMUM STEPSIZE WHICH MEETS STABILITY CRITERION OF THE ADVECTION TERM
 (FOR PURE FINITE-DIFFERENCE OPTION, MIXELM=0) 
 = 0.8136E-01(WHEN MIN. R.F.=1)  AT K=   3, I=   2, J=  32


 TOTAL NUMBER OF POINT SOURCES/SINKS PRESENT IN THE FLOW MODEL =   240

 MAXIMUM STEPSIZE WHICH MEETS STABILITY CRITERION OF THE SINK & SOURCE TERM
 = 0.1000E+31(WHEN MIN. R.F.=1)  AT K=   0, I=   0, J=   0

 MAXIMUM STEPSIZE WHICH MEETS STABILITY CRITERION OF THE DISPERSION TERM
 = 0.5604E-02(WHEN MIN. R.F.=1)  AT K=   3, I=   2, J=  32
     1 CALLS TO GCG PACKAGE FOR TRANSPORT TIME STEP   3 IN FLOW TIME STEP  76 STRESS PERIOD   2
    11 TOTAL ITERATIONS
 
 SOLVING FOR HEAD 
 FLOW MODEL IS TRANSIENT
 FLOW MODEL CONTAINS CONSTANT-HEAD CELLS


 MAXIMUM STEPSIZE DURING WHICH ANY PARTICLE CANNOT MOVE MORE THAN ONE CELL
 = 0.1187    (WHEN MIN. R.F.=1)  AT K=   3, I=   2, J=  33

 MAXIMUM STEPSIZE WHICH MEETS STABILITY CRITERION OF THE ADVECTION TERM
 (FOR PURE FINITE-DIFFERENCE OPTION, MIXELM=0) 
 = 0.8136E-01(WHEN MIN. R.F.=1)  AT K=   3, I=   2, J=  32


 TOTAL NUMBER OF POINT SOURCES/SINKS PRESENT IN THE FLOW MODEL =   240

 MAXIMUM STEPSIZE WHICH MEETS STABILITY CRITERION OF THE SINK & SOURCE TERM
 = 0.1000E+31(WHEN MIN. R.F.=1)  AT K=   0, I=   0, J=   0

 MAXIMUM STEPSIZE WHICH MEETS STABILITY CRITERION OF THE DISPERSION TERM
 = 0.5604E-02(WHEN MIN. R.F.=1)  AT K=   3, I=   2, J=  32
     1 CALLS TO GCG PACKAGE FOR TRANSPORT TIME STEP   4 IN FLOW TIME STEP  76 STRESS PERIOD   2
    11 TOTAL ITERATIONS
 
 SOLVING FOR HEAD 
 FLOW MODEL IS TRANSIENT
 FLOW MODEL CONTAINS CONSTANT-HEAD CELLS


 MAXIMUM STEPSIZE DURING WHICH ANY PARTICLE CANNOT MOVE MORE THAN ONE CELL
 = 0.1187    (WHEN MIN. R.F.=1)  AT K=   3, I=   2, J=  33

 MAXIMUM STEPSIZE WHICH MEETS STABILITY CRITERION OF THE ADVECTION TERM
 (FOR PURE FINITE-DIFFERENCE OPTION, MIXELM=0) 
 = 0.8136E-01(WHEN MIN. R.F.=1)  AT K=   3, I=   2, J=  32


 TOTAL NUMBER OF POINT SOURCES/SINKS PRESENT IN THE FLOW MODEL =   240

 MAXIMUM STEPSIZE WHICH MEETS STABILITY CRITERION OF THE SINK & SOURCE TERM
 = 0.1000E+31(WHEN MIN. R.F.=1)  AT K=   0, I=   0, J=   0

 MAXIMUM STEPSIZE WHICH MEETS STABILITY CRITERION OF THE DISPERSION TERM
 = 0.5604E-02(WHEN MIN. R.F.=1)  AT K=   3, I=   2, J=  32
     1 CALLS TO GCG PACKAGE FOR TRANSPORT TIME STEP   5 IN FLOW TIME STEP  76 STRESS PERIOD   2
    11 TOTAL ITERATIONS
 
 SOLVING FOR HEAD 
 FLOW MODEL IS TRANSIENT
 FLOW MODEL CONTAINS CONSTANT-HEAD CELLS


 MAXIMUM STEPSIZE DURING WHICH ANY PARTICLE CANNOT MOVE MORE THAN ONE CELL
 = 0.1187    (WHEN MIN. R.F.=1)  AT K=   3, I=   2, J=  33

 MAXIMUM STEPSIZE WHICH MEETS STABILITY CRITERION OF THE ADVECTION TERM
 (FOR PURE FINITE-DIFFERENCE OPTION, MIXELM=0) 
 = 0.8136E-01(WHEN MIN. R.F.=1)  AT K=   3, I=   2, J=  32


 TOTAL NUMBER OF POINT SOURCES/SINKS PRESENT IN THE FLOW MODEL =   240

 MAXIMUM STEPSIZE WHICH MEETS STABILITY CRITERION OF THE SINK & SOURCE TERM
 = 0.1000E+31(WHEN MIN. R.F.=1)  AT K=   0, I=   0, J=   0

 MAXIMUM STEPSIZE WHICH MEETS STABILITY CRITERION OF THE DISPERSION TERM
 = 0.5604E-02(WHEN MIN. R.F.=1)  AT K=   3, I=   2, J=  32
     1 CALLS TO GCG PACKAGE FOR TRANSPORT TIME STEP   6 IN FLOW TIME STEP  76 STRESS PERIOD   2
    11 TOTAL ITERATIONS
 
 SOLVING FOR HEAD 
 FLOW MODEL IS TRANSIENT
 FLOW MODEL CONTAINS CONSTANT-HEAD CELLS


 MAXIMUM STEPSIZE DURING WHICH ANY PARTICLE CANNOT MOVE MORE THAN ONE CELL
 = 0.1187    (WHEN MIN. R.F.=1)  AT K=   3, I=   2, J=  33

 MAXIMUM STEPSIZE WHICH MEETS STABILITY CRITERION OF THE ADVECTION TERM
 (FOR PURE FINITE-DIFFERENCE OPTION, MIXELM=0) 
 = 0.8136E-01(WHEN MIN. R.F.=1)  AT K=   3, I=   2, J=  32


 TOTAL NUMBER OF POINT SOURCES/SINKS PRESENT IN THE FLOW MODEL =   240

 MAXIMUM STEPSIZE WHICH MEETS STABILITY CRITERION OF THE SINK & SOURCE TERM
 = 0.1000E+31(WHEN MIN. R.F.=1)  AT K=   0, I=   0, J=   0

 MAXIMUM STEPSIZE WHICH MEETS STABILITY CRITERION OF THE DISPERSION TERM
 = 0.5604E-02(WHEN MIN. R.F.=1)  AT K=   3, I=   2, J=  32
     1 CALLS TO GCG PACKAGE FOR TRANSPORT TIME STEP   7 IN FLOW TIME STEP  76 STRESS PERIOD   2
    11 TOTAL ITERATIONS
 
 SOLVING FOR HEAD 
 FLOW MODEL IS TRANSIENT
 FLOW MODEL CONTAINS CONSTANT-HEAD CELLS


 MAXIMUM STEPSIZE DURING WHICH ANY PARTICLE CANNOT MOVE MORE THAN ONE CELL
 = 0.1187    (WHEN MIN. R.F.=1)  AT K=   3, I=   2, J=  33

 MAXIMUM STEPSIZE WHICH MEETS STABILITY CRITERION OF THE ADVECTION TERM
 (FOR PURE FINITE-DIFFERENCE OPTION, MIXELM=0) 
 = 0.8136E-01(WHEN MIN. R.F.=1)  AT K=   3, I=   2, J=  32


 TOTAL NUMBER OF POINT SOURCES/SINKS PRESENT IN THE FLOW MODEL =   240

 MAXIMUM STEPSIZE WHICH MEETS STABILITY CRITERION OF THE SINK & SOURCE TERM
 = 0.1000E+31(WHEN MIN. R.F.=1)  AT K=   0, I=   0, J=   0

 MAXIMUM STEPSIZE WHICH MEETS STABILITY CRITERION OF THE DISPERSION TERM
 = 0.5604E-02(WHEN MIN. R.F.=1)  AT K=   3, I=   2, J=  32
     1 CALLS TO GCG PACKAGE FOR TRANSPORT TIME STEP   8 IN FLOW TIME STEP  76 STRESS PERIOD   2
    11 TOTAL ITERATIONS
 
 SOLVING FOR HEAD 
 FLOW MODEL IS TRANSIENT
 FLOW MODEL CONTAINS CONSTANT-HEAD CELLS


 MAXIMUM STEPSIZE DURING WHICH ANY PARTICLE CANNOT MOVE MORE THAN ONE CELL
 = 0.1187    (WHEN MIN. R.F.=1)  AT K=   3, I=   2, J=  33

 MAXIMUM STEPSIZE WHICH MEETS STABILITY CRITERION OF THE ADVECTION TERM
 (FOR PURE FINITE-DIFFERENCE OPTION, MIXELM=0) 
 = 0.8136E-01(WHEN MIN. R.F.=1)  AT K=   3, I=   2, J=  32


 TOTAL NUMBER OF POINT SOURCES/SINKS PRESENT IN THE FLOW MODEL =   240

 MAXIMUM STEPSIZE WHICH MEETS STABILITY CRITERION OF THE SINK & SOURCE TERM
 = 0.1000E+31(WHEN MIN. R.F.=1)  AT K=   0, I=   0, J=   0

 MAXIMUM STEPSIZE WHICH MEETS STABILITY CRITERION OF THE DISPERSION TERM
 = 0.5604E-02(WHEN MIN. R.F.=1)  AT K=   3, I=   2, J=  32
     1 CALLS TO GCG PACKAGE FOR TRANSPORT TIME STEP   9 IN FLOW TIME STEP  76 STRESS PERIOD   2
    11 TOTAL ITERATIONS
 
 SOLVING FOR HEAD 
 FLOW MODEL IS TRANSIENT
 FLOW MODEL CONTAINS CONSTANT-HEAD CELLS


 MAXIMUM STEPSIZE DURING WHICH ANY PARTICLE CANNOT MOVE MORE THAN ONE CELL
 = 0.1187    (WHEN MIN. R.F.=1)  AT K=   3, I=   2, J=  33

 MAXIMUM STEPSIZE WHICH MEETS STABILITY CRITERION OF THE ADVECTION TERM
 (FOR PURE FINITE-DIFFERENCE OPTION, MIXELM=0) 
 = 0.8136E-01(WHEN MIN. R.F.=1)  AT K=   3, I=   2, J=  32


 TOTAL NUMBER OF POINT SOURCES/SINKS PRESENT IN THE FLOW MODEL =   240

 MAXIMUM STEPSIZE WHICH MEETS STABILITY CRITERION OF THE SINK & SOURCE TERM
 = 0.1000E+31(WHEN MIN. R.F.=1)  AT K=   0, I=   0, J=   0

 MAXIMUM STEPSIZE WHICH MEETS STABILITY CRITERION OF THE DISPERSION TERM
 = 0.5604E-02(WHEN MIN. R.F.=1)  AT K=   3, I=   2, J=  32
     1 CALLS TO GCG PACKAGE FOR TRANSPORT TIME STEP  10 IN FLOW TIME STEP  76 STRESS PERIOD   2
    11 TOTAL ITERATIONS



 >>>>>>>>>>>>>>>>>>>>>>>>>>>>>>>>>>>>>>>>>>>>>>>>>>>>>>>FOR COMPONENT NO. 01<<<<<<<<<<<<<<<<<<<<<<<<<<<<<<<<<<<<<<<<<<<<<<<<<<<<<<<


                                            -------------------------------------------
                                                      TRANSPORT STEP NO.   10
                                            -------------------------------------------

 TOTAL ELAPSED TIME SINCE BEGINNING OF SIMULATION =   76.89036    D   
 .....................................................................

                     CUMULATIVE MASS BUDGETS AT END OF TRANSPORT STEP   10, TIME STEP   76, STRESS PERIOD    2
                     ------------------------------------------------------------------------------------------

                                                             IN                           OUT
                                                      ----------------             ----------------
                               CONSTANT CONCENTRATION:    11579.95                   -6754.922    
                                        CONSTANT HEAD:    0.000000                    0.000000    
                               MASS STOR (FLOW MODEL):   0.1301573E-01              -0.3412404E-02
                                MASS STORAGE (SOLUTE):    8.900062                   -4833.945    
                            ---------------------------------------------------------------------------
                                              [TOTAL]:    11588.87     KG            -11588.87     KG  

                                                          NET (IN - OUT):  -0.3185604E-02
                                                   DISCREPANCY (PERCENT):  -0.2748848E-04
 
 SOLVING FOR HEAD 
 FLOW MODEL IS TRANSIENT
 FLOW MODEL CONTAINS CONSTANT-HEAD CELLS


 MAXIMUM STEPSIZE DURING WHICH ANY PARTICLE CANNOT MOVE MORE THAN ONE CELL
 = 0.1187    (WHEN MIN. R.F.=1)  AT K=   3, I=   2, J=  33

 MAXIMUM STEPSIZE WHICH MEETS STABILITY CRITERION OF THE ADVECTION TERM
 (FOR PURE FINITE-DIFFERENCE OPTION, MIXELM=0) 
 = 0.8136E-01(WHEN MIN. R.F.=1)  AT K=   3, I=   2, J=  32


 TOTAL NUMBER OF POINT SOURCES/SINKS PRESENT IN THE FLOW MODEL =   240

 MAXIMUM STEPSIZE WHICH MEETS STABILITY CRITERION OF THE SINK & SOURCE TERM
 = 0.1000E+31(WHEN MIN. R.F.=1)  AT K=   0, I=   0, J=   0

 MAXIMUM STEPSIZE WHICH MEETS STABILITY CRITERION OF THE DISPERSION TERM
 = 0.5604E-02(WHEN MIN. R.F.=1)  AT K=   3, I=   2, J=  32
     1 CALLS TO GCG PACKAGE FOR TRANSPORT TIME STEP  11 IN FLOW TIME STEP  76 STRESS PERIOD   2
    11 TOTAL ITERATIONS
 
 SOLVING FOR HEAD 
 FLOW MODEL IS TRANSIENT
 FLOW MODEL CONTAINS CONSTANT-HEAD CELLS


 MAXIMUM STEPSIZE DURING WHICH ANY PARTICLE CANNOT MOVE MORE THAN ONE CELL
 = 0.1187    (WHEN MIN. R.F.=1)  AT K=   3, I=   2, J=  33

 MAXIMUM STEPSIZE WHICH MEETS STABILITY CRITERION OF THE ADVECTION TERM
 (FOR PURE FINITE-DIFFERENCE OPTION, MIXELM=0) 
 = 0.8136E-01(WHEN MIN. R.F.=1)  AT K=   3, I=   2, J=  32


 TOTAL NUMBER OF POINT SOURCES/SINKS PRESENT IN THE FLOW MODEL =   240

 MAXIMUM STEPSIZE WHICH MEETS STABILITY CRITERION OF THE SINK & SOURCE TERM
 = 0.1000E+31(WHEN MIN. R.F.=1)  AT K=   0, I=   0, J=   0

 MAXIMUM STEPSIZE WHICH MEETS STABILITY CRITERION OF THE DISPERSION TERM
 = 0.5604E-02(WHEN MIN. R.F.=1)  AT K=   3, I=   2, J=  32
     1 CALLS TO GCG PACKAGE FOR TRANSPORT TIME STEP  12 IN FLOW TIME STEP  76 STRESS PERIOD   2
     5 TOTAL ITERATIONS
  MAXIMUM CONCENTRATION CHANGES FOR EACH ITERATION:
  MAX. CHANGE LAYER,ROW,COL MAX. CHANGE LAYER,ROW,COL MAX. CHANGE LAYER,ROW,COL MAX. CHANGE LAYER,ROW,COL MAX. CHANGE LAYER,ROW,COL
 ------------------------------------------------------------------------------------------------------------------------------------
   0.1259E-03 ( 16,  2, 54)  0.6465E-05 (  6,  2, 61)  0.9485E-06 (  5,  2, 57)  0.2128E-06 (  7,  2, 60)  0.9081E-07 (  4,  2, 32)


                                          ================================================
                                                         FROM TIME =   77.000     TO    78.000    

 
 SOLVING FOR HEAD 
 FLOW MODEL IS TRANSIENT
 FLOW MODEL CONTAINS CONSTANT-HEAD CELLS


 MAXIMUM STEPSIZE DURING WHICH ANY PARTICLE CANNOT MOVE MORE THAN ONE CELL
 = 0.1187    (WHEN MIN. R.F.=1)  AT K=   3, I=   2, J=  33

 MAXIMUM STEPSIZE WHICH MEETS STABILITY CRITERION OF THE ADVECTION TERM
 (FOR PURE FINITE-DIFFERENCE OPTION, MIXELM=0) 
 = 0.8136E-01(WHEN MIN. R.F.=1)  AT K=   3, I=   2, J=  32


 TOTAL NUMBER OF POINT SOURCES/SINKS PRESENT IN THE FLOW MODEL =   240

 MAXIMUM STEPSIZE WHICH MEETS STABILITY CRITERION OF THE SINK & SOURCE TERM
 = 0.1000E+31(WHEN MIN. R.F.=1)  AT K=   0, I=   0, J=   0

 MAXIMUM STEPSIZE WHICH MEETS STABILITY CRITERION OF THE DISPERSION TERM
 = 0.5604E-02(WHEN MIN. R.F.=1)  AT K=   3, I=   2, J=  32


     1 CALLS TO GCG PACKAGE FOR TRANSPORT TIME STEP   1 IN FLOW TIME STEP  77 STRESS PERIOD   2
    11 TOTAL ITERATIONS

 NO OUTPUT CONTROL FOR STRESS PERIOD    2   TIME STEP  77
 
 SOLVING FOR HEAD 
 FLOW MODEL IS TRANSIENT
 FLOW MODEL CONTAINS CONSTANT-HEAD CELLS


 MAXIMUM STEPSIZE DURING WHICH ANY PARTICLE CANNOT MOVE MORE THAN ONE CELL
 = 0.1187    (WHEN MIN. R.F.=1)  AT K=   3, I=   2, J=  33

 MAXIMUM STEPSIZE WHICH MEETS STABILITY CRITERION OF THE ADVECTION TERM
 (FOR PURE FINITE-DIFFERENCE OPTION, MIXELM=0) 
 = 0.8136E-01(WHEN MIN. R.F.=1)  AT K=   3, I=   2, J=  32


 TOTAL NUMBER OF POINT SOURCES/SINKS PRESENT IN THE FLOW MODEL =   240

 MAXIMUM STEPSIZE WHICH MEETS STABILITY CRITERION OF THE SINK & SOURCE TERM
 = 0.1000E+31(WHEN MIN. R.F.=1)  AT K=   0, I=   0, J=   0

 MAXIMUM STEPSIZE WHICH MEETS STABILITY CRITERION OF THE DISPERSION TERM
 = 0.5604E-02(WHEN MIN. R.F.=1)  AT K=   3, I=   2, J=  32
     1 CALLS TO GCG PACKAGE FOR TRANSPORT TIME STEP   2 IN FLOW TIME STEP  77 STRESS PERIOD   2
    11 TOTAL ITERATIONS
 
 SOLVING FOR HEAD 
 FLOW MODEL IS TRANSIENT
 FLOW MODEL CONTAINS CONSTANT-HEAD CELLS


 MAXIMUM STEPSIZE DURING WHICH ANY PARTICLE CANNOT MOVE MORE THAN ONE CELL
 = 0.1187    (WHEN MIN. R.F.=1)  AT K=   3, I=   2, J=  33

 MAXIMUM STEPSIZE WHICH MEETS STABILITY CRITERION OF THE ADVECTION TERM
 (FOR PURE FINITE-DIFFERENCE OPTION, MIXELM=0) 
 = 0.8136E-01(WHEN MIN. R.F.=1)  AT K=   3, I=   2, J=  32


 TOTAL NUMBER OF POINT SOURCES/SINKS PRESENT IN THE FLOW MODEL =   240

 MAXIMUM STEPSIZE WHICH MEETS STABILITY CRITERION OF THE SINK & SOURCE TERM
 = 0.1000E+31(WHEN MIN. R.F.=1)  AT K=   0, I=   0, J=   0

 MAXIMUM STEPSIZE WHICH MEETS STABILITY CRITERION OF THE DISPERSION TERM
 = 0.5604E-02(WHEN MIN. R.F.=1)  AT K=   3, I=   2, J=  32
     1 CALLS TO GCG PACKAGE FOR TRANSPORT TIME STEP   3 IN FLOW TIME STEP  77 STRESS PERIOD   2
    11 TOTAL ITERATIONS
 
 SOLVING FOR HEAD 
 FLOW MODEL IS TRANSIENT
 FLOW MODEL CONTAINS CONSTANT-HEAD CELLS


 MAXIMUM STEPSIZE DURING WHICH ANY PARTICLE CANNOT MOVE MORE THAN ONE CELL
 = 0.1187    (WHEN MIN. R.F.=1)  AT K=   3, I=   2, J=  33

 MAXIMUM STEPSIZE WHICH MEETS STABILITY CRITERION OF THE ADVECTION TERM
 (FOR PURE FINITE-DIFFERENCE OPTION, MIXELM=0) 
 = 0.8136E-01(WHEN MIN. R.F.=1)  AT K=   3, I=   2, J=  32


 TOTAL NUMBER OF POINT SOURCES/SINKS PRESENT IN THE FLOW MODEL =   240

 MAXIMUM STEPSIZE WHICH MEETS STABILITY CRITERION OF THE SINK & SOURCE TERM
 = 0.1000E+31(WHEN MIN. R.F.=1)  AT K=   0, I=   0, J=   0

 MAXIMUM STEPSIZE WHICH MEETS STABILITY CRITERION OF THE DISPERSION TERM
 = 0.5604E-02(WHEN MIN. R.F.=1)  AT K=   3, I=   2, J=  32
     1 CALLS TO GCG PACKAGE FOR TRANSPORT TIME STEP   4 IN FLOW TIME STEP  77 STRESS PERIOD   2
    11 TOTAL ITERATIONS
 
 SOLVING FOR HEAD 
 FLOW MODEL IS TRANSIENT
 FLOW MODEL CONTAINS CONSTANT-HEAD CELLS


 MAXIMUM STEPSIZE DURING WHICH ANY PARTICLE CANNOT MOVE MORE THAN ONE CELL
 = 0.1187    (WHEN MIN. R.F.=1)  AT K=   3, I=   2, J=  33

 MAXIMUM STEPSIZE WHICH MEETS STABILITY CRITERION OF THE ADVECTION TERM
 (FOR PURE FINITE-DIFFERENCE OPTION, MIXELM=0) 
 = 0.8136E-01(WHEN MIN. R.F.=1)  AT K=   3, I=   2, J=  32


 TOTAL NUMBER OF POINT SOURCES/SINKS PRESENT IN THE FLOW MODEL =   240

 MAXIMUM STEPSIZE WHICH MEETS STABILITY CRITERION OF THE SINK & SOURCE TERM
 = 0.1000E+31(WHEN MIN. R.F.=1)  AT K=   0, I=   0, J=   0

 MAXIMUM STEPSIZE WHICH MEETS STABILITY CRITERION OF THE DISPERSION TERM
 = 0.5604E-02(WHEN MIN. R.F.=1)  AT K=   3, I=   2, J=  32
     1 CALLS TO GCG PACKAGE FOR TRANSPORT TIME STEP   5 IN FLOW TIME STEP  77 STRESS PERIOD   2
    11 TOTAL ITERATIONS
 
 SOLVING FOR HEAD 
 FLOW MODEL IS TRANSIENT
 FLOW MODEL CONTAINS CONSTANT-HEAD CELLS


 MAXIMUM STEPSIZE DURING WHICH ANY PARTICLE CANNOT MOVE MORE THAN ONE CELL
 = 0.1187    (WHEN MIN. R.F.=1)  AT K=   3, I=   2, J=  33

 MAXIMUM STEPSIZE WHICH MEETS STABILITY CRITERION OF THE ADVECTION TERM
 (FOR PURE FINITE-DIFFERENCE OPTION, MIXELM=0) 
 = 0.8136E-01(WHEN MIN. R.F.=1)  AT K=   3, I=   2, J=  32


 TOTAL NUMBER OF POINT SOURCES/SINKS PRESENT IN THE FLOW MODEL =   240

 MAXIMUM STEPSIZE WHICH MEETS STABILITY CRITERION OF THE SINK & SOURCE TERM
 = 0.1000E+31(WHEN MIN. R.F.=1)  AT K=   0, I=   0, J=   0

 MAXIMUM STEPSIZE WHICH MEETS STABILITY CRITERION OF THE DISPERSION TERM
 = 0.5604E-02(WHEN MIN. R.F.=1)  AT K=   3, I=   2, J=  32
     1 CALLS TO GCG PACKAGE FOR TRANSPORT TIME STEP   6 IN FLOW TIME STEP  77 STRESS PERIOD   2
    11 TOTAL ITERATIONS
 
 SOLVING FOR HEAD 
 FLOW MODEL IS TRANSIENT
 FLOW MODEL CONTAINS CONSTANT-HEAD CELLS


 MAXIMUM STEPSIZE DURING WHICH ANY PARTICLE CANNOT MOVE MORE THAN ONE CELL
 = 0.1187    (WHEN MIN. R.F.=1)  AT K=   3, I=   2, J=  33

 MAXIMUM STEPSIZE WHICH MEETS STABILITY CRITERION OF THE ADVECTION TERM
 (FOR PURE FINITE-DIFFERENCE OPTION, MIXELM=0) 
 = 0.8136E-01(WHEN MIN. R.F.=1)  AT K=   3, I=   2, J=  32


 TOTAL NUMBER OF POINT SOURCES/SINKS PRESENT IN THE FLOW MODEL =   240

 MAXIMUM STEPSIZE WHICH MEETS STABILITY CRITERION OF THE SINK & SOURCE TERM
 = 0.1000E+31(WHEN MIN. R.F.=1)  AT K=   0, I=   0, J=   0

 MAXIMUM STEPSIZE WHICH MEETS STABILITY CRITERION OF THE DISPERSION TERM
 = 0.5604E-02(WHEN MIN. R.F.=1)  AT K=   3, I=   2, J=  32
     1 CALLS TO GCG PACKAGE FOR TRANSPORT TIME STEP   7 IN FLOW TIME STEP  77 STRESS PERIOD   2
    11 TOTAL ITERATIONS
 
 SOLVING FOR HEAD 
 FLOW MODEL IS TRANSIENT
 FLOW MODEL CONTAINS CONSTANT-HEAD CELLS


 MAXIMUM STEPSIZE DURING WHICH ANY PARTICLE CANNOT MOVE MORE THAN ONE CELL
 = 0.1187    (WHEN MIN. R.F.=1)  AT K=   3, I=   2, J=  33

 MAXIMUM STEPSIZE WHICH MEETS STABILITY CRITERION OF THE ADVECTION TERM
 (FOR PURE FINITE-DIFFERENCE OPTION, MIXELM=0) 
 = 0.8136E-01(WHEN MIN. R.F.=1)  AT K=   3, I=   2, J=  32


 TOTAL NUMBER OF POINT SOURCES/SINKS PRESENT IN THE FLOW MODEL =   240

 MAXIMUM STEPSIZE WHICH MEETS STABILITY CRITERION OF THE SINK & SOURCE TERM
 = 0.1000E+31(WHEN MIN. R.F.=1)  AT K=   0, I=   0, J=   0

 MAXIMUM STEPSIZE WHICH MEETS STABILITY CRITERION OF THE DISPERSION TERM
 = 0.5604E-02(WHEN MIN. R.F.=1)  AT K=   3, I=   2, J=  32
     1 CALLS TO GCG PACKAGE FOR TRANSPORT TIME STEP   8 IN FLOW TIME STEP  77 STRESS PERIOD   2
    11 TOTAL ITERATIONS
 
 SOLVING FOR HEAD 
 FLOW MODEL IS TRANSIENT
 FLOW MODEL CONTAINS CONSTANT-HEAD CELLS


 MAXIMUM STEPSIZE DURING WHICH ANY PARTICLE CANNOT MOVE MORE THAN ONE CELL
 = 0.1187    (WHEN MIN. R.F.=1)  AT K=   3, I=   2, J=  33

 MAXIMUM STEPSIZE WHICH MEETS STABILITY CRITERION OF THE ADVECTION TERM
 (FOR PURE FINITE-DIFFERENCE OPTION, MIXELM=0) 
 = 0.8136E-01(WHEN MIN. R.F.=1)  AT K=   3, I=   2, J=  32


 TOTAL NUMBER OF POINT SOURCES/SINKS PRESENT IN THE FLOW MODEL =   240

 MAXIMUM STEPSIZE WHICH MEETS STABILITY CRITERION OF THE SINK & SOURCE TERM
 = 0.1000E+31(WHEN MIN. R.F.=1)  AT K=   0, I=   0, J=   0

 MAXIMUM STEPSIZE WHICH MEETS STABILITY CRITERION OF THE DISPERSION TERM
 = 0.5604E-02(WHEN MIN. R.F.=1)  AT K=   3, I=   2, J=  32
     1 CALLS TO GCG PACKAGE FOR TRANSPORT TIME STEP   9 IN FLOW TIME STEP  77 STRESS PERIOD   2
    11 TOTAL ITERATIONS
 
 SOLVING FOR HEAD 
 FLOW MODEL IS TRANSIENT
 FLOW MODEL CONTAINS CONSTANT-HEAD CELLS


 MAXIMUM STEPSIZE DURING WHICH ANY PARTICLE CANNOT MOVE MORE THAN ONE CELL
 = 0.1187    (WHEN MIN. R.F.=1)  AT K=   3, I=   2, J=  33

 MAXIMUM STEPSIZE WHICH MEETS STABILITY CRITERION OF THE ADVECTION TERM
 (FOR PURE FINITE-DIFFERENCE OPTION, MIXELM=0) 
 = 0.8136E-01(WHEN MIN. R.F.=1)  AT K=   3, I=   2, J=  32


 TOTAL NUMBER OF POINT SOURCES/SINKS PRESENT IN THE FLOW MODEL =   240

 MAXIMUM STEPSIZE WHICH MEETS STABILITY CRITERION OF THE SINK & SOURCE TERM
 = 0.1000E+31(WHEN MIN. R.F.=1)  AT K=   0, I=   0, J=   0

 MAXIMUM STEPSIZE WHICH MEETS STABILITY CRITERION OF THE DISPERSION TERM
 = 0.5604E-02(WHEN MIN. R.F.=1)  AT K=   3, I=   2, J=  32
     1 CALLS TO GCG PACKAGE FOR TRANSPORT TIME STEP  10 IN FLOW TIME STEP  77 STRESS PERIOD   2
    11 TOTAL ITERATIONS



 >>>>>>>>>>>>>>>>>>>>>>>>>>>>>>>>>>>>>>>>>>>>>>>>>>>>>>>FOR COMPONENT NO. 01<<<<<<<<<<<<<<<<<<<<<<<<<<<<<<<<<<<<<<<<<<<<<<<<<<<<<<<


                                            -------------------------------------------
                                                      TRANSPORT STEP NO.   10
                                            -------------------------------------------

 TOTAL ELAPSED TIME SINCE BEGINNING OF SIMULATION =   77.89034    D   
 .....................................................................

                     CUMULATIVE MASS BUDGETS AT END OF TRANSPORT STEP   10, TIME STEP   77, STRESS PERIOD    2
                     ------------------------------------------------------------------------------------------

                                                             IN                           OUT
                                                      ----------------             ----------------
                               CONSTANT CONCENTRATION:    11685.54                   -6847.827    
                                        CONSTANT HEAD:    0.000000                    0.000000    
                               MASS STOR (FLOW MODEL):   0.1302999E-01              -0.3414964E-02
                                MASS STORAGE (SOLUTE):    9.110722                   -4846.834    
                            ---------------------------------------------------------------------------
                                              [TOTAL]:    11694.66     KG            -11694.66     KG  

                                                          NET (IN - OUT):  -0.3192093E-02
                                                   DISCREPANCY (PERCENT):  -0.2729529E-04
 
 SOLVING FOR HEAD 
 FLOW MODEL IS TRANSIENT
 FLOW MODEL CONTAINS CONSTANT-HEAD CELLS


 MAXIMUM STEPSIZE DURING WHICH ANY PARTICLE CANNOT MOVE MORE THAN ONE CELL
 = 0.1187    (WHEN MIN. R.F.=1)  AT K=   3, I=   2, J=  33

 MAXIMUM STEPSIZE WHICH MEETS STABILITY CRITERION OF THE ADVECTION TERM
 (FOR PURE FINITE-DIFFERENCE OPTION, MIXELM=0) 
 = 0.8136E-01(WHEN MIN. R.F.=1)  AT K=   3, I=   2, J=  32


 TOTAL NUMBER OF POINT SOURCES/SINKS PRESENT IN THE FLOW MODEL =   240

 MAXIMUM STEPSIZE WHICH MEETS STABILITY CRITERION OF THE SINK & SOURCE TERM
 = 0.1000E+31(WHEN MIN. R.F.=1)  AT K=   0, I=   0, J=   0

 MAXIMUM STEPSIZE WHICH MEETS STABILITY CRITERION OF THE DISPERSION TERM
 = 0.5604E-02(WHEN MIN. R.F.=1)  AT K=   3, I=   2, J=  32
     1 CALLS TO GCG PACKAGE FOR TRANSPORT TIME STEP  11 IN FLOW TIME STEP  77 STRESS PERIOD   2
    11 TOTAL ITERATIONS
 
 SOLVING FOR HEAD 
 FLOW MODEL IS TRANSIENT
 FLOW MODEL CONTAINS CONSTANT-HEAD CELLS


 MAXIMUM STEPSIZE DURING WHICH ANY PARTICLE CANNOT MOVE MORE THAN ONE CELL
 = 0.1187    (WHEN MIN. R.F.=1)  AT K=   3, I=   2, J=  33

 MAXIMUM STEPSIZE WHICH MEETS STABILITY CRITERION OF THE ADVECTION TERM
 (FOR PURE FINITE-DIFFERENCE OPTION, MIXELM=0) 
 = 0.8136E-01(WHEN MIN. R.F.=1)  AT K=   3, I=   2, J=  32


 TOTAL NUMBER OF POINT SOURCES/SINKS PRESENT IN THE FLOW MODEL =   240

 MAXIMUM STEPSIZE WHICH MEETS STABILITY CRITERION OF THE SINK & SOURCE TERM
 = 0.1000E+31(WHEN MIN. R.F.=1)  AT K=   0, I=   0, J=   0

 MAXIMUM STEPSIZE WHICH MEETS STABILITY CRITERION OF THE DISPERSION TERM
 = 0.5604E-02(WHEN MIN. R.F.=1)  AT K=   3, I=   2, J=  32
     1 CALLS TO GCG PACKAGE FOR TRANSPORT TIME STEP  12 IN FLOW TIME STEP  77 STRESS PERIOD   2
     5 TOTAL ITERATIONS
  MAXIMUM CONCENTRATION CHANGES FOR EACH ITERATION:
  MAX. CHANGE LAYER,ROW,COL MAX. CHANGE LAYER,ROW,COL MAX. CHANGE LAYER,ROW,COL MAX. CHANGE LAYER,ROW,COL MAX. CHANGE LAYER,ROW,COL
 ------------------------------------------------------------------------------------------------------------------------------------
   0.1255E-03 ( 16,  2, 54)  0.6283E-05 (  6,  2, 61)  0.9200E-06 (  5,  2, 57)  0.2022E-06 (  7,  2, 60)  0.8482E-07 (  4,  2, 32)


                                          ================================================
                                                         FROM TIME =   78.000     TO    79.000    

 
 SOLVING FOR HEAD 
 FLOW MODEL IS TRANSIENT
 FLOW MODEL CONTAINS CONSTANT-HEAD CELLS


 MAXIMUM STEPSIZE DURING WHICH ANY PARTICLE CANNOT MOVE MORE THAN ONE CELL
 = 0.1187    (WHEN MIN. R.F.=1)  AT K=   3, I=   2, J=  33

 MAXIMUM STEPSIZE WHICH MEETS STABILITY CRITERION OF THE ADVECTION TERM
 (FOR PURE FINITE-DIFFERENCE OPTION, MIXELM=0) 
 = 0.8136E-01(WHEN MIN. R.F.=1)  AT K=   3, I=   2, J=  32


 TOTAL NUMBER OF POINT SOURCES/SINKS PRESENT IN THE FLOW MODEL =   240

 MAXIMUM STEPSIZE WHICH MEETS STABILITY CRITERION OF THE SINK & SOURCE TERM
 = 0.1000E+31(WHEN MIN. R.F.=1)  AT K=   0, I=   0, J=   0

 MAXIMUM STEPSIZE WHICH MEETS STABILITY CRITERION OF THE DISPERSION TERM
 = 0.5604E-02(WHEN MIN. R.F.=1)  AT K=   3, I=   2, J=  32


     1 CALLS TO GCG PACKAGE FOR TRANSPORT TIME STEP   1 IN FLOW TIME STEP  78 STRESS PERIOD   2
    11 TOTAL ITERATIONS

 NO OUTPUT CONTROL FOR STRESS PERIOD    2   TIME STEP  78
 
 SOLVING FOR HEAD 
 FLOW MODEL IS TRANSIENT
 FLOW MODEL CONTAINS CONSTANT-HEAD CELLS


 MAXIMUM STEPSIZE DURING WHICH ANY PARTICLE CANNOT MOVE MORE THAN ONE CELL
 = 0.1187    (WHEN MIN. R.F.=1)  AT K=   3, I=   2, J=  33

 MAXIMUM STEPSIZE WHICH MEETS STABILITY CRITERION OF THE ADVECTION TERM
 (FOR PURE FINITE-DIFFERENCE OPTION, MIXELM=0) 
 = 0.8136E-01(WHEN MIN. R.F.=1)  AT K=   3, I=   2, J=  32


 TOTAL NUMBER OF POINT SOURCES/SINKS PRESENT IN THE FLOW MODEL =   240

 MAXIMUM STEPSIZE WHICH MEETS STABILITY CRITERION OF THE SINK & SOURCE TERM
 = 0.1000E+31(WHEN MIN. R.F.=1)  AT K=   0, I=   0, J=   0

 MAXIMUM STEPSIZE WHICH MEETS STABILITY CRITERION OF THE DISPERSION TERM
 = 0.5604E-02(WHEN MIN. R.F.=1)  AT K=   3, I=   2, J=  32
     1 CALLS TO GCG PACKAGE FOR TRANSPORT TIME STEP   2 IN FLOW TIME STEP  78 STRESS PERIOD   2
    11 TOTAL ITERATIONS
 
 SOLVING FOR HEAD 
 FLOW MODEL IS TRANSIENT
 FLOW MODEL CONTAINS CONSTANT-HEAD CELLS


 MAXIMUM STEPSIZE DURING WHICH ANY PARTICLE CANNOT MOVE MORE THAN ONE CELL
 = 0.1187    (WHEN MIN. R.F.=1)  AT K=   3, I=   2, J=  33

 MAXIMUM STEPSIZE WHICH MEETS STABILITY CRITERION OF THE ADVECTION TERM
 (FOR PURE FINITE-DIFFERENCE OPTION, MIXELM=0) 
 = 0.8136E-01(WHEN MIN. R.F.=1)  AT K=   3, I=   2, J=  32


 TOTAL NUMBER OF POINT SOURCES/SINKS PRESENT IN THE FLOW MODEL =   240

 MAXIMUM STEPSIZE WHICH MEETS STABILITY CRITERION OF THE SINK & SOURCE TERM
 = 0.1000E+31(WHEN MIN. R.F.=1)  AT K=   0, I=   0, J=   0

 MAXIMUM STEPSIZE WHICH MEETS STABILITY CRITERION OF THE DISPERSION TERM
 = 0.5604E-02(WHEN MIN. R.F.=1)  AT K=   3, I=   2, J=  32
     1 CALLS TO GCG PACKAGE FOR TRANSPORT TIME STEP   3 IN FLOW TIME STEP  78 STRESS PERIOD   2
    11 TOTAL ITERATIONS
 
 SOLVING FOR HEAD 
 FLOW MODEL IS TRANSIENT
 FLOW MODEL CONTAINS CONSTANT-HEAD CELLS


 MAXIMUM STEPSIZE DURING WHICH ANY PARTICLE CANNOT MOVE MORE THAN ONE CELL
 = 0.1187    (WHEN MIN. R.F.=1)  AT K=   3, I=   2, J=  33

 MAXIMUM STEPSIZE WHICH MEETS STABILITY CRITERION OF THE ADVECTION TERM
 (FOR PURE FINITE-DIFFERENCE OPTION, MIXELM=0) 
 = 0.8136E-01(WHEN MIN. R.F.=1)  AT K=   3, I=   2, J=  32


 TOTAL NUMBER OF POINT SOURCES/SINKS PRESENT IN THE FLOW MODEL =   240

 MAXIMUM STEPSIZE WHICH MEETS STABILITY CRITERION OF THE SINK & SOURCE TERM
 = 0.1000E+31(WHEN MIN. R.F.=1)  AT K=   0, I=   0, J=   0

 MAXIMUM STEPSIZE WHICH MEETS STABILITY CRITERION OF THE DISPERSION TERM
 = 0.5604E-02(WHEN MIN. R.F.=1)  AT K=   3, I=   2, J=  32
     1 CALLS TO GCG PACKAGE FOR TRANSPORT TIME STEP   4 IN FLOW TIME STEP  78 STRESS PERIOD   2
    11 TOTAL ITERATIONS
 
 SOLVING FOR HEAD 
 FLOW MODEL IS TRANSIENT
 FLOW MODEL CONTAINS CONSTANT-HEAD CELLS


 MAXIMUM STEPSIZE DURING WHICH ANY PARTICLE CANNOT MOVE MORE THAN ONE CELL
 = 0.1187    (WHEN MIN. R.F.=1)  AT K=   3, I=   2, J=  33

 MAXIMUM STEPSIZE WHICH MEETS STABILITY CRITERION OF THE ADVECTION TERM
 (FOR PURE FINITE-DIFFERENCE OPTION, MIXELM=0) 
 = 0.8136E-01(WHEN MIN. R.F.=1)  AT K=   3, I=   2, J=  32


 TOTAL NUMBER OF POINT SOURCES/SINKS PRESENT IN THE FLOW MODEL =   240

 MAXIMUM STEPSIZE WHICH MEETS STABILITY CRITERION OF THE SINK & SOURCE TERM
 = 0.1000E+31(WHEN MIN. R.F.=1)  AT K=   0, I=   0, J=   0

 MAXIMUM STEPSIZE WHICH MEETS STABILITY CRITERION OF THE DISPERSION TERM
 = 0.5604E-02(WHEN MIN. R.F.=1)  AT K=   3, I=   2, J=  32
     1 CALLS TO GCG PACKAGE FOR TRANSPORT TIME STEP   5 IN FLOW TIME STEP  78 STRESS PERIOD   2
    11 TOTAL ITERATIONS
 
 SOLVING FOR HEAD 
 FLOW MODEL IS TRANSIENT
 FLOW MODEL CONTAINS CONSTANT-HEAD CELLS


 MAXIMUM STEPSIZE DURING WHICH ANY PARTICLE CANNOT MOVE MORE THAN ONE CELL
 = 0.1187    (WHEN MIN. R.F.=1)  AT K=   3, I=   2, J=  33

 MAXIMUM STEPSIZE WHICH MEETS STABILITY CRITERION OF THE ADVECTION TERM
 (FOR PURE FINITE-DIFFERENCE OPTION, MIXELM=0) 
 = 0.8136E-01(WHEN MIN. R.F.=1)  AT K=   3, I=   2, J=  32


 TOTAL NUMBER OF POINT SOURCES/SINKS PRESENT IN THE FLOW MODEL =   240

 MAXIMUM STEPSIZE WHICH MEETS STABILITY CRITERION OF THE SINK & SOURCE TERM
 = 0.1000E+31(WHEN MIN. R.F.=1)  AT K=   0, I=   0, J=   0

 MAXIMUM STEPSIZE WHICH MEETS STABILITY CRITERION OF THE DISPERSION TERM
 = 0.5604E-02(WHEN MIN. R.F.=1)  AT K=   3, I=   2, J=  32
     1 CALLS TO GCG PACKAGE FOR TRANSPORT TIME STEP   6 IN FLOW TIME STEP  78 STRESS PERIOD   2
    11 TOTAL ITERATIONS
 
 SOLVING FOR HEAD 
 FLOW MODEL IS TRANSIENT
 FLOW MODEL CONTAINS CONSTANT-HEAD CELLS


 MAXIMUM STEPSIZE DURING WHICH ANY PARTICLE CANNOT MOVE MORE THAN ONE CELL
 = 0.1187    (WHEN MIN. R.F.=1)  AT K=   3, I=   2, J=  33

 MAXIMUM STEPSIZE WHICH MEETS STABILITY CRITERION OF THE ADVECTION TERM
 (FOR PURE FINITE-DIFFERENCE OPTION, MIXELM=0) 
 = 0.8136E-01(WHEN MIN. R.F.=1)  AT K=   3, I=   2, J=  32


 TOTAL NUMBER OF POINT SOURCES/SINKS PRESENT IN THE FLOW MODEL =   240

 MAXIMUM STEPSIZE WHICH MEETS STABILITY CRITERION OF THE SINK & SOURCE TERM
 = 0.1000E+31(WHEN MIN. R.F.=1)  AT K=   0, I=   0, J=   0

 MAXIMUM STEPSIZE WHICH MEETS STABILITY CRITERION OF THE DISPERSION TERM
 = 0.5604E-02(WHEN MIN. R.F.=1)  AT K=   3, I=   2, J=  32
     1 CALLS TO GCG PACKAGE FOR TRANSPORT TIME STEP   7 IN FLOW TIME STEP  78 STRESS PERIOD   2
    11 TOTAL ITERATIONS
 
 SOLVING FOR HEAD 
 FLOW MODEL IS TRANSIENT
 FLOW MODEL CONTAINS CONSTANT-HEAD CELLS


 MAXIMUM STEPSIZE DURING WHICH ANY PARTICLE CANNOT MOVE MORE THAN ONE CELL
 = 0.1187    (WHEN MIN. R.F.=1)  AT K=   3, I=   2, J=  33

 MAXIMUM STEPSIZE WHICH MEETS STABILITY CRITERION OF THE ADVECTION TERM
 (FOR PURE FINITE-DIFFERENCE OPTION, MIXELM=0) 
 = 0.8136E-01(WHEN MIN. R.F.=1)  AT K=   3, I=   2, J=  32


 TOTAL NUMBER OF POINT SOURCES/SINKS PRESENT IN THE FLOW MODEL =   240

 MAXIMUM STEPSIZE WHICH MEETS STABILITY CRITERION OF THE SINK & SOURCE TERM
 = 0.1000E+31(WHEN MIN. R.F.=1)  AT K=   0, I=   0, J=   0

 MAXIMUM STEPSIZE WHICH MEETS STABILITY CRITERION OF THE DISPERSION TERM
 = 0.5604E-02(WHEN MIN. R.F.=1)  AT K=   3, I=   2, J=  32
     1 CALLS TO GCG PACKAGE FOR TRANSPORT TIME STEP   8 IN FLOW TIME STEP  78 STRESS PERIOD   2
    11 TOTAL ITERATIONS
 
 SOLVING FOR HEAD 
 FLOW MODEL IS TRANSIENT
 FLOW MODEL CONTAINS CONSTANT-HEAD CELLS


 MAXIMUM STEPSIZE DURING WHICH ANY PARTICLE CANNOT MOVE MORE THAN ONE CELL
 = 0.1187    (WHEN MIN. R.F.=1)  AT K=   3, I=   2, J=  33

 MAXIMUM STEPSIZE WHICH MEETS STABILITY CRITERION OF THE ADVECTION TERM
 (FOR PURE FINITE-DIFFERENCE OPTION, MIXELM=0) 
 = 0.8136E-01(WHEN MIN. R.F.=1)  AT K=   3, I=   2, J=  32


 TOTAL NUMBER OF POINT SOURCES/SINKS PRESENT IN THE FLOW MODEL =   240

 MAXIMUM STEPSIZE WHICH MEETS STABILITY CRITERION OF THE SINK & SOURCE TERM
 = 0.1000E+31(WHEN MIN. R.F.=1)  AT K=   0, I=   0, J=   0

 MAXIMUM STEPSIZE WHICH MEETS STABILITY CRITERION OF THE DISPERSION TERM
 = 0.5604E-02(WHEN MIN. R.F.=1)  AT K=   3, I=   2, J=  32
     1 CALLS TO GCG PACKAGE FOR TRANSPORT TIME STEP   9 IN FLOW TIME STEP  78 STRESS PERIOD   2
    11 TOTAL ITERATIONS
 
 SOLVING FOR HEAD 
 FLOW MODEL IS TRANSIENT
 FLOW MODEL CONTAINS CONSTANT-HEAD CELLS


 MAXIMUM STEPSIZE DURING WHICH ANY PARTICLE CANNOT MOVE MORE THAN ONE CELL
 = 0.1187    (WHEN MIN. R.F.=1)  AT K=   3, I=   2, J=  33

 MAXIMUM STEPSIZE WHICH MEETS STABILITY CRITERION OF THE ADVECTION TERM
 (FOR PURE FINITE-DIFFERENCE OPTION, MIXELM=0) 
 = 0.8136E-01(WHEN MIN. R.F.=1)  AT K=   3, I=   2, J=  32


 TOTAL NUMBER OF POINT SOURCES/SINKS PRESENT IN THE FLOW MODEL =   240

 MAXIMUM STEPSIZE WHICH MEETS STABILITY CRITERION OF THE SINK & SOURCE TERM
 = 0.1000E+31(WHEN MIN. R.F.=1)  AT K=   0, I=   0, J=   0

 MAXIMUM STEPSIZE WHICH MEETS STABILITY CRITERION OF THE DISPERSION TERM
 = 0.5604E-02(WHEN MIN. R.F.=1)  AT K=   3, I=   2, J=  32
     1 CALLS TO GCG PACKAGE FOR TRANSPORT TIME STEP  10 IN FLOW TIME STEP  78 STRESS PERIOD   2
    11 TOTAL ITERATIONS



 >>>>>>>>>>>>>>>>>>>>>>>>>>>>>>>>>>>>>>>>>>>>>>>>>>>>>>>FOR COMPONENT NO. 01<<<<<<<<<<<<<<<<<<<<<<<<<<<<<<<<<<<<<<<<<<<<<<<<<<<<<<<


                                            -------------------------------------------
                                                      TRANSPORT STEP NO.   10
                                            -------------------------------------------

 TOTAL ELAPSED TIME SINCE BEGINNING OF SIMULATION =   78.89033    D   
 .....................................................................

                     CUMULATIVE MASS BUDGETS AT END OF TRANSPORT STEP   10, TIME STEP   78, STRESS PERIOD    2
                     ------------------------------------------------------------------------------------------

                                                             IN                           OUT
                                                      ----------------             ----------------
                               CONSTANT CONCENTRATION:    11790.96                   -6940.746    
                                        CONSTANT HEAD:    0.000000                    0.000000    
                               MASS STOR (FLOW MODEL):   0.1304414E-01              -0.3417439E-02
                                MASS STORAGE (SOLUTE):    9.315049                   -4859.540    
                            ---------------------------------------------------------------------------
                                              [TOTAL]:    11800.29     KG            -11800.29     KG  

                                                          NET (IN - OUT):  -0.3195107E-02
                                                   DISCREPANCY (PERCENT):  -0.2707652E-04
 
 SOLVING FOR HEAD 
 FLOW MODEL IS TRANSIENT
 FLOW MODEL CONTAINS CONSTANT-HEAD CELLS


 MAXIMUM STEPSIZE DURING WHICH ANY PARTICLE CANNOT MOVE MORE THAN ONE CELL
 = 0.1187    (WHEN MIN. R.F.=1)  AT K=   3, I=   2, J=  33

 MAXIMUM STEPSIZE WHICH MEETS STABILITY CRITERION OF THE ADVECTION TERM
 (FOR PURE FINITE-DIFFERENCE OPTION, MIXELM=0) 
 = 0.8136E-01(WHEN MIN. R.F.=1)  AT K=   3, I=   2, J=  32


 TOTAL NUMBER OF POINT SOURCES/SINKS PRESENT IN THE FLOW MODEL =   240

 MAXIMUM STEPSIZE WHICH MEETS STABILITY CRITERION OF THE SINK & SOURCE TERM
 = 0.1000E+31(WHEN MIN. R.F.=1)  AT K=   0, I=   0, J=   0

 MAXIMUM STEPSIZE WHICH MEETS STABILITY CRITERION OF THE DISPERSION TERM
 = 0.5604E-02(WHEN MIN. R.F.=1)  AT K=   3, I=   2, J=  32
     1 CALLS TO GCG PACKAGE FOR TRANSPORT TIME STEP  11 IN FLOW TIME STEP  78 STRESS PERIOD   2
    11 TOTAL ITERATIONS
 
 SOLVING FOR HEAD 
 FLOW MODEL IS TRANSIENT
 FLOW MODEL CONTAINS CONSTANT-HEAD CELLS


 MAXIMUM STEPSIZE DURING WHICH ANY PARTICLE CANNOT MOVE MORE THAN ONE CELL
 = 0.1187    (WHEN MIN. R.F.=1)  AT K=   3, I=   2, J=  33

 MAXIMUM STEPSIZE WHICH MEETS STABILITY CRITERION OF THE ADVECTION TERM
 (FOR PURE FINITE-DIFFERENCE OPTION, MIXELM=0) 
 = 0.8136E-01(WHEN MIN. R.F.=1)  AT K=   3, I=   2, J=  32


 TOTAL NUMBER OF POINT SOURCES/SINKS PRESENT IN THE FLOW MODEL =   240

 MAXIMUM STEPSIZE WHICH MEETS STABILITY CRITERION OF THE SINK & SOURCE TERM
 = 0.1000E+31(WHEN MIN. R.F.=1)  AT K=   0, I=   0, J=   0

 MAXIMUM STEPSIZE WHICH MEETS STABILITY CRITERION OF THE DISPERSION TERM
 = 0.5604E-02(WHEN MIN. R.F.=1)  AT K=   3, I=   2, J=  32
     1 CALLS TO GCG PACKAGE FOR TRANSPORT TIME STEP  12 IN FLOW TIME STEP  78 STRESS PERIOD   2
     5 TOTAL ITERATIONS
  MAXIMUM CONCENTRATION CHANGES FOR EACH ITERATION:
  MAX. CHANGE LAYER,ROW,COL MAX. CHANGE LAYER,ROW,COL MAX. CHANGE LAYER,ROW,COL MAX. CHANGE LAYER,ROW,COL MAX. CHANGE LAYER,ROW,COL
 ------------------------------------------------------------------------------------------------------------------------------------
   0.1250E-03 ( 16,  2, 54)  0.6108E-05 (  6,  2, 61)  0.8923E-06 (  5,  2, 57)  0.1917E-06 (  7,  2, 60)  0.7876E-07 (  4,  2, 32)


                                          ================================================
                                                         FROM TIME =   79.000     TO    80.000    

 
 SOLVING FOR HEAD 
 FLOW MODEL IS TRANSIENT
 FLOW MODEL CONTAINS CONSTANT-HEAD CELLS


 MAXIMUM STEPSIZE DURING WHICH ANY PARTICLE CANNOT MOVE MORE THAN ONE CELL
 = 0.1187    (WHEN MIN. R.F.=1)  AT K=   3, I=   2, J=  33

 MAXIMUM STEPSIZE WHICH MEETS STABILITY CRITERION OF THE ADVECTION TERM
 (FOR PURE FINITE-DIFFERENCE OPTION, MIXELM=0) 
 = 0.8136E-01(WHEN MIN. R.F.=1)  AT K=   3, I=   2, J=  32


 TOTAL NUMBER OF POINT SOURCES/SINKS PRESENT IN THE FLOW MODEL =   240

 MAXIMUM STEPSIZE WHICH MEETS STABILITY CRITERION OF THE SINK & SOURCE TERM
 = 0.1000E+31(WHEN MIN. R.F.=1)  AT K=   0, I=   0, J=   0

 MAXIMUM STEPSIZE WHICH MEETS STABILITY CRITERION OF THE DISPERSION TERM
 = 0.5604E-02(WHEN MIN. R.F.=1)  AT K=   3, I=   2, J=  32


     1 CALLS TO GCG PACKAGE FOR TRANSPORT TIME STEP   1 IN FLOW TIME STEP  79 STRESS PERIOD   2
    11 TOTAL ITERATIONS

 NO OUTPUT CONTROL FOR STRESS PERIOD    2   TIME STEP  79
 
 SOLVING FOR HEAD 
 FLOW MODEL IS TRANSIENT
 FLOW MODEL CONTAINS CONSTANT-HEAD CELLS


 MAXIMUM STEPSIZE DURING WHICH ANY PARTICLE CANNOT MOVE MORE THAN ONE CELL
 = 0.1187    (WHEN MIN. R.F.=1)  AT K=   3, I=   2, J=  33

 MAXIMUM STEPSIZE WHICH MEETS STABILITY CRITERION OF THE ADVECTION TERM
 (FOR PURE FINITE-DIFFERENCE OPTION, MIXELM=0) 
 = 0.8136E-01(WHEN MIN. R.F.=1)  AT K=   3, I=   2, J=  32


 TOTAL NUMBER OF POINT SOURCES/SINKS PRESENT IN THE FLOW MODEL =   240

 MAXIMUM STEPSIZE WHICH MEETS STABILITY CRITERION OF THE SINK & SOURCE TERM
 = 0.1000E+31(WHEN MIN. R.F.=1)  AT K=   0, I=   0, J=   0

 MAXIMUM STEPSIZE WHICH MEETS STABILITY CRITERION OF THE DISPERSION TERM
 = 0.5604E-02(WHEN MIN. R.F.=1)  AT K=   3, I=   2, J=  32
     1 CALLS TO GCG PACKAGE FOR TRANSPORT TIME STEP   2 IN FLOW TIME STEP  79 STRESS PERIOD   2
    11 TOTAL ITERATIONS
 
 SOLVING FOR HEAD 
 FLOW MODEL IS TRANSIENT
 FLOW MODEL CONTAINS CONSTANT-HEAD CELLS


 MAXIMUM STEPSIZE DURING WHICH ANY PARTICLE CANNOT MOVE MORE THAN ONE CELL
 = 0.1187    (WHEN MIN. R.F.=1)  AT K=   3, I=   2, J=  33

 MAXIMUM STEPSIZE WHICH MEETS STABILITY CRITERION OF THE ADVECTION TERM
 (FOR PURE FINITE-DIFFERENCE OPTION, MIXELM=0) 
 = 0.8136E-01(WHEN MIN. R.F.=1)  AT K=   3, I=   2, J=  32


 TOTAL NUMBER OF POINT SOURCES/SINKS PRESENT IN THE FLOW MODEL =   240

 MAXIMUM STEPSIZE WHICH MEETS STABILITY CRITERION OF THE SINK & SOURCE TERM
 = 0.1000E+31(WHEN MIN. R.F.=1)  AT K=   0, I=   0, J=   0

 MAXIMUM STEPSIZE WHICH MEETS STABILITY CRITERION OF THE DISPERSION TERM
 = 0.5604E-02(WHEN MIN. R.F.=1)  AT K=   3, I=   2, J=  32
     1 CALLS TO GCG PACKAGE FOR TRANSPORT TIME STEP   3 IN FLOW TIME STEP  79 STRESS PERIOD   2
    11 TOTAL ITERATIONS
 
 SOLVING FOR HEAD 
 FLOW MODEL IS TRANSIENT
 FLOW MODEL CONTAINS CONSTANT-HEAD CELLS


 MAXIMUM STEPSIZE DURING WHICH ANY PARTICLE CANNOT MOVE MORE THAN ONE CELL
 = 0.1187    (WHEN MIN. R.F.=1)  AT K=   3, I=   2, J=  33

 MAXIMUM STEPSIZE WHICH MEETS STABILITY CRITERION OF THE ADVECTION TERM
 (FOR PURE FINITE-DIFFERENCE OPTION, MIXELM=0) 
 = 0.8136E-01(WHEN MIN. R.F.=1)  AT K=   3, I=   2, J=  32


 TOTAL NUMBER OF POINT SOURCES/SINKS PRESENT IN THE FLOW MODEL =   240

 MAXIMUM STEPSIZE WHICH MEETS STABILITY CRITERION OF THE SINK & SOURCE TERM
 = 0.1000E+31(WHEN MIN. R.F.=1)  AT K=   0, I=   0, J=   0

 MAXIMUM STEPSIZE WHICH MEETS STABILITY CRITERION OF THE DISPERSION TERM
 = 0.5604E-02(WHEN MIN. R.F.=1)  AT K=   3, I=   2, J=  32
     1 CALLS TO GCG PACKAGE FOR TRANSPORT TIME STEP   4 IN FLOW TIME STEP  79 STRESS PERIOD   2
    11 TOTAL ITERATIONS
 
 SOLVING FOR HEAD 
 FLOW MODEL IS TRANSIENT
 FLOW MODEL CONTAINS CONSTANT-HEAD CELLS


 MAXIMUM STEPSIZE DURING WHICH ANY PARTICLE CANNOT MOVE MORE THAN ONE CELL
 = 0.1187    (WHEN MIN. R.F.=1)  AT K=   3, I=   2, J=  33

 MAXIMUM STEPSIZE WHICH MEETS STABILITY CRITERION OF THE ADVECTION TERM
 (FOR PURE FINITE-DIFFERENCE OPTION, MIXELM=0) 
 = 0.8136E-01(WHEN MIN. R.F.=1)  AT K=   3, I=   2, J=  32


 TOTAL NUMBER OF POINT SOURCES/SINKS PRESENT IN THE FLOW MODEL =   240

 MAXIMUM STEPSIZE WHICH MEETS STABILITY CRITERION OF THE SINK & SOURCE TERM
 = 0.1000E+31(WHEN MIN. R.F.=1)  AT K=   0, I=   0, J=   0

 MAXIMUM STEPSIZE WHICH MEETS STABILITY CRITERION OF THE DISPERSION TERM
 = 0.5604E-02(WHEN MIN. R.F.=1)  AT K=   3, I=   2, J=  32
     1 CALLS TO GCG PACKAGE FOR TRANSPORT TIME STEP   5 IN FLOW TIME STEP  79 STRESS PERIOD   2
    11 TOTAL ITERATIONS
 
 SOLVING FOR HEAD 
 FLOW MODEL IS TRANSIENT
 FLOW MODEL CONTAINS CONSTANT-HEAD CELLS


 MAXIMUM STEPSIZE DURING WHICH ANY PARTICLE CANNOT MOVE MORE THAN ONE CELL
 = 0.1187    (WHEN MIN. R.F.=1)  AT K=   3, I=   2, J=  33

 MAXIMUM STEPSIZE WHICH MEETS STABILITY CRITERION OF THE ADVECTION TERM
 (FOR PURE FINITE-DIFFERENCE OPTION, MIXELM=0) 
 = 0.8136E-01(WHEN MIN. R.F.=1)  AT K=   3, I=   2, J=  32


 TOTAL NUMBER OF POINT SOURCES/SINKS PRESENT IN THE FLOW MODEL =   240

 MAXIMUM STEPSIZE WHICH MEETS STABILITY CRITERION OF THE SINK & SOURCE TERM
 = 0.1000E+31(WHEN MIN. R.F.=1)  AT K=   0, I=   0, J=   0

 MAXIMUM STEPSIZE WHICH MEETS STABILITY CRITERION OF THE DISPERSION TERM
 = 0.5604E-02(WHEN MIN. R.F.=1)  AT K=   3, I=   2, J=  32
     1 CALLS TO GCG PACKAGE FOR TRANSPORT TIME STEP   6 IN FLOW TIME STEP  79 STRESS PERIOD   2
    11 TOTAL ITERATIONS
 
 SOLVING FOR HEAD 
 FLOW MODEL IS TRANSIENT
 FLOW MODEL CONTAINS CONSTANT-HEAD CELLS


 MAXIMUM STEPSIZE DURING WHICH ANY PARTICLE CANNOT MOVE MORE THAN ONE CELL
 = 0.1187    (WHEN MIN. R.F.=1)  AT K=   3, I=   2, J=  33

 MAXIMUM STEPSIZE WHICH MEETS STABILITY CRITERION OF THE ADVECTION TERM
 (FOR PURE FINITE-DIFFERENCE OPTION, MIXELM=0) 
 = 0.8136E-01(WHEN MIN. R.F.=1)  AT K=   3, I=   2, J=  32


 TOTAL NUMBER OF POINT SOURCES/SINKS PRESENT IN THE FLOW MODEL =   240

 MAXIMUM STEPSIZE WHICH MEETS STABILITY CRITERION OF THE SINK & SOURCE TERM
 = 0.1000E+31(WHEN MIN. R.F.=1)  AT K=   0, I=   0, J=   0

 MAXIMUM STEPSIZE WHICH MEETS STABILITY CRITERION OF THE DISPERSION TERM
 = 0.5604E-02(WHEN MIN. R.F.=1)  AT K=   3, I=   2, J=  32
     1 CALLS TO GCG PACKAGE FOR TRANSPORT TIME STEP   7 IN FLOW TIME STEP  79 STRESS PERIOD   2
    11 TOTAL ITERATIONS
 
 SOLVING FOR HEAD 
 FLOW MODEL IS TRANSIENT
 FLOW MODEL CONTAINS CONSTANT-HEAD CELLS


 MAXIMUM STEPSIZE DURING WHICH ANY PARTICLE CANNOT MOVE MORE THAN ONE CELL
 = 0.1187    (WHEN MIN. R.F.=1)  AT K=   3, I=   2, J=  33

 MAXIMUM STEPSIZE WHICH MEETS STABILITY CRITERION OF THE ADVECTION TERM
 (FOR PURE FINITE-DIFFERENCE OPTION, MIXELM=0) 
 = 0.8136E-01(WHEN MIN. R.F.=1)  AT K=   3, I=   2, J=  32


 TOTAL NUMBER OF POINT SOURCES/SINKS PRESENT IN THE FLOW MODEL =   240

 MAXIMUM STEPSIZE WHICH MEETS STABILITY CRITERION OF THE SINK & SOURCE TERM
 = 0.1000E+31(WHEN MIN. R.F.=1)  AT K=   0, I=   0, J=   0

 MAXIMUM STEPSIZE WHICH MEETS STABILITY CRITERION OF THE DISPERSION TERM
 = 0.5604E-02(WHEN MIN. R.F.=1)  AT K=   3, I=   2, J=  32
     1 CALLS TO GCG PACKAGE FOR TRANSPORT TIME STEP   8 IN FLOW TIME STEP  79 STRESS PERIOD   2
    11 TOTAL ITERATIONS
 
 SOLVING FOR HEAD 
 FLOW MODEL IS TRANSIENT
 FLOW MODEL CONTAINS CONSTANT-HEAD CELLS


 MAXIMUM STEPSIZE DURING WHICH ANY PARTICLE CANNOT MOVE MORE THAN ONE CELL
 = 0.1187    (WHEN MIN. R.F.=1)  AT K=   3, I=   2, J=  33

 MAXIMUM STEPSIZE WHICH MEETS STABILITY CRITERION OF THE ADVECTION TERM
 (FOR PURE FINITE-DIFFERENCE OPTION, MIXELM=0) 
 = 0.8136E-01(WHEN MIN. R.F.=1)  AT K=   3, I=   2, J=  32


 TOTAL NUMBER OF POINT SOURCES/SINKS PRESENT IN THE FLOW MODEL =   240

 MAXIMUM STEPSIZE WHICH MEETS STABILITY CRITERION OF THE SINK & SOURCE TERM
 = 0.1000E+31(WHEN MIN. R.F.=1)  AT K=   0, I=   0, J=   0

 MAXIMUM STEPSIZE WHICH MEETS STABILITY CRITERION OF THE DISPERSION TERM
 = 0.5604E-02(WHEN MIN. R.F.=1)  AT K=   3, I=   2, J=  32
     1 CALLS TO GCG PACKAGE FOR TRANSPORT TIME STEP   9 IN FLOW TIME STEP  79 STRESS PERIOD   2
    11 TOTAL ITERATIONS
 
 SOLVING FOR HEAD 
 FLOW MODEL IS TRANSIENT
 FLOW MODEL CONTAINS CONSTANT-HEAD CELLS


 MAXIMUM STEPSIZE DURING WHICH ANY PARTICLE CANNOT MOVE MORE THAN ONE CELL
 = 0.1187    (WHEN MIN. R.F.=1)  AT K=   3, I=   2, J=  33

 MAXIMUM STEPSIZE WHICH MEETS STABILITY CRITERION OF THE ADVECTION TERM
 (FOR PURE FINITE-DIFFERENCE OPTION, MIXELM=0) 
 = 0.8136E-01(WHEN MIN. R.F.=1)  AT K=   3, I=   2, J=  32


 TOTAL NUMBER OF POINT SOURCES/SINKS PRESENT IN THE FLOW MODEL =   240

 MAXIMUM STEPSIZE WHICH MEETS STABILITY CRITERION OF THE SINK & SOURCE TERM
 = 0.1000E+31(WHEN MIN. R.F.=1)  AT K=   0, I=   0, J=   0

 MAXIMUM STEPSIZE WHICH MEETS STABILITY CRITERION OF THE DISPERSION TERM
 = 0.5604E-02(WHEN MIN. R.F.=1)  AT K=   3, I=   2, J=  32
     1 CALLS TO GCG PACKAGE FOR TRANSPORT TIME STEP  10 IN FLOW TIME STEP  79 STRESS PERIOD   2
    11 TOTAL ITERATIONS



 >>>>>>>>>>>>>>>>>>>>>>>>>>>>>>>>>>>>>>>>>>>>>>>>>>>>>>>FOR COMPONENT NO. 01<<<<<<<<<<<<<<<<<<<<<<<<<<<<<<<<<<<<<<<<<<<<<<<<<<<<<<<


                                            -------------------------------------------
                                                      TRANSPORT STEP NO.   10
                                            -------------------------------------------

 TOTAL ELAPSED TIME SINCE BEGINNING OF SIMULATION =   79.89031    D   
 .....................................................................

                     CUMULATIVE MASS BUDGETS AT END OF TRANSPORT STEP   10, TIME STEP   79, STRESS PERIOD    2
                     ------------------------------------------------------------------------------------------

                                                             IN                           OUT
                                                      ----------------             ----------------
                               CONSTANT CONCENTRATION:    11896.22                   -7033.678    
                                        CONSTANT HEAD:    0.000000                    0.000000    
                               MASS STOR (FLOW MODEL):   0.1305818E-01              -0.3419831E-02
                                MASS STORAGE (SOLUTE):    9.513027                   -4872.069    
                            ---------------------------------------------------------------------------
                                              [TOTAL]:    11905.75     KG            -11905.75     KG  

                                                          NET (IN - OUT):  -0.3194262E-02
                                                   DISCREPANCY (PERCENT):  -0.2682958E-04
 
 SOLVING FOR HEAD 
 FLOW MODEL IS TRANSIENT
 FLOW MODEL CONTAINS CONSTANT-HEAD CELLS


 MAXIMUM STEPSIZE DURING WHICH ANY PARTICLE CANNOT MOVE MORE THAN ONE CELL
 = 0.1187    (WHEN MIN. R.F.=1)  AT K=   3, I=   2, J=  33

 MAXIMUM STEPSIZE WHICH MEETS STABILITY CRITERION OF THE ADVECTION TERM
 (FOR PURE FINITE-DIFFERENCE OPTION, MIXELM=0) 
 = 0.8136E-01(WHEN MIN. R.F.=1)  AT K=   3, I=   2, J=  32


 TOTAL NUMBER OF POINT SOURCES/SINKS PRESENT IN THE FLOW MODEL =   240

 MAXIMUM STEPSIZE WHICH MEETS STABILITY CRITERION OF THE SINK & SOURCE TERM
 = 0.1000E+31(WHEN MIN. R.F.=1)  AT K=   0, I=   0, J=   0

 MAXIMUM STEPSIZE WHICH MEETS STABILITY CRITERION OF THE DISPERSION TERM
 = 0.5604E-02(WHEN MIN. R.F.=1)  AT K=   3, I=   2, J=  32
     1 CALLS TO GCG PACKAGE FOR TRANSPORT TIME STEP  11 IN FLOW TIME STEP  79 STRESS PERIOD   2
    11 TOTAL ITERATIONS
 
 SOLVING FOR HEAD 
 FLOW MODEL IS TRANSIENT
 FLOW MODEL CONTAINS CONSTANT-HEAD CELLS


 MAXIMUM STEPSIZE DURING WHICH ANY PARTICLE CANNOT MOVE MORE THAN ONE CELL
 = 0.1187    (WHEN MIN. R.F.=1)  AT K=   3, I=   2, J=  33

 MAXIMUM STEPSIZE WHICH MEETS STABILITY CRITERION OF THE ADVECTION TERM
 (FOR PURE FINITE-DIFFERENCE OPTION, MIXELM=0) 
 = 0.8136E-01(WHEN MIN. R.F.=1)  AT K=   3, I=   2, J=  32


 TOTAL NUMBER OF POINT SOURCES/SINKS PRESENT IN THE FLOW MODEL =   240

 MAXIMUM STEPSIZE WHICH MEETS STABILITY CRITERION OF THE SINK & SOURCE TERM
 = 0.1000E+31(WHEN MIN. R.F.=1)  AT K=   0, I=   0, J=   0

 MAXIMUM STEPSIZE WHICH MEETS STABILITY CRITERION OF THE DISPERSION TERM
 = 0.5604E-02(WHEN MIN. R.F.=1)  AT K=   3, I=   2, J=  32
     1 CALLS TO GCG PACKAGE FOR TRANSPORT TIME STEP  12 IN FLOW TIME STEP  79 STRESS PERIOD   2
     5 TOTAL ITERATIONS
  MAXIMUM CONCENTRATION CHANGES FOR EACH ITERATION:
  MAX. CHANGE LAYER,ROW,COL MAX. CHANGE LAYER,ROW,COL MAX. CHANGE LAYER,ROW,COL MAX. CHANGE LAYER,ROW,COL MAX. CHANGE LAYER,ROW,COL
 ------------------------------------------------------------------------------------------------------------------------------------
   0.1245E-03 ( 16,  2, 54)  0.5939E-05 (  6,  2, 61)  0.8655E-06 (  5,  2, 57)  0.1814E-06 (  7,  2, 60)  0.7272E-07 (  4,  2, 32)


                                          ================================================
                                                         FROM TIME =   80.000     TO    81.000    

 
 SOLVING FOR HEAD 
 FLOW MODEL IS TRANSIENT
 FLOW MODEL CONTAINS CONSTANT-HEAD CELLS


 MAXIMUM STEPSIZE DURING WHICH ANY PARTICLE CANNOT MOVE MORE THAN ONE CELL
 = 0.1187    (WHEN MIN. R.F.=1)  AT K=   3, I=   2, J=  33

 MAXIMUM STEPSIZE WHICH MEETS STABILITY CRITERION OF THE ADVECTION TERM
 (FOR PURE FINITE-DIFFERENCE OPTION, MIXELM=0) 
 = 0.8136E-01(WHEN MIN. R.F.=1)  AT K=   3, I=   2, J=  32


 TOTAL NUMBER OF POINT SOURCES/SINKS PRESENT IN THE FLOW MODEL =   240

 MAXIMUM STEPSIZE WHICH MEETS STABILITY CRITERION OF THE SINK & SOURCE TERM
 = 0.1000E+31(WHEN MIN. R.F.=1)  AT K=   0, I=   0, J=   0

 MAXIMUM STEPSIZE WHICH MEETS STABILITY CRITERION OF THE DISPERSION TERM
 = 0.5604E-02(WHEN MIN. R.F.=1)  AT K=   3, I=   2, J=  32


     1 CALLS TO GCG PACKAGE FOR TRANSPORT TIME STEP   1 IN FLOW TIME STEP  80 STRESS PERIOD   2
    11 TOTAL ITERATIONS

 NO OUTPUT CONTROL FOR STRESS PERIOD    2   TIME STEP  80
 
 SOLVING FOR HEAD 
 FLOW MODEL IS TRANSIENT
 FLOW MODEL CONTAINS CONSTANT-HEAD CELLS


 MAXIMUM STEPSIZE DURING WHICH ANY PARTICLE CANNOT MOVE MORE THAN ONE CELL
 = 0.1187    (WHEN MIN. R.F.=1)  AT K=   3, I=   2, J=  33

 MAXIMUM STEPSIZE WHICH MEETS STABILITY CRITERION OF THE ADVECTION TERM
 (FOR PURE FINITE-DIFFERENCE OPTION, MIXELM=0) 
 = 0.8136E-01(WHEN MIN. R.F.=1)  AT K=   3, I=   2, J=  32


 TOTAL NUMBER OF POINT SOURCES/SINKS PRESENT IN THE FLOW MODEL =   240

 MAXIMUM STEPSIZE WHICH MEETS STABILITY CRITERION OF THE SINK & SOURCE TERM
 = 0.1000E+31(WHEN MIN. R.F.=1)  AT K=   0, I=   0, J=   0

 MAXIMUM STEPSIZE WHICH MEETS STABILITY CRITERION OF THE DISPERSION TERM
 = 0.5604E-02(WHEN MIN. R.F.=1)  AT K=   3, I=   2, J=  32
     1 CALLS TO GCG PACKAGE FOR TRANSPORT TIME STEP   2 IN FLOW TIME STEP  80 STRESS PERIOD   2
    11 TOTAL ITERATIONS
 
 SOLVING FOR HEAD 
 FLOW MODEL IS TRANSIENT
 FLOW MODEL CONTAINS CONSTANT-HEAD CELLS


 MAXIMUM STEPSIZE DURING WHICH ANY PARTICLE CANNOT MOVE MORE THAN ONE CELL
 = 0.1187    (WHEN MIN. R.F.=1)  AT K=   3, I=   2, J=  33

 MAXIMUM STEPSIZE WHICH MEETS STABILITY CRITERION OF THE ADVECTION TERM
 (FOR PURE FINITE-DIFFERENCE OPTION, MIXELM=0) 
 = 0.8136E-01(WHEN MIN. R.F.=1)  AT K=   3, I=   2, J=  32


 TOTAL NUMBER OF POINT SOURCES/SINKS PRESENT IN THE FLOW MODEL =   240

 MAXIMUM STEPSIZE WHICH MEETS STABILITY CRITERION OF THE SINK & SOURCE TERM
 = 0.1000E+31(WHEN MIN. R.F.=1)  AT K=   0, I=   0, J=   0

 MAXIMUM STEPSIZE WHICH MEETS STABILITY CRITERION OF THE DISPERSION TERM
 = 0.5604E-02(WHEN MIN. R.F.=1)  AT K=   3, I=   2, J=  32
     1 CALLS TO GCG PACKAGE FOR TRANSPORT TIME STEP   3 IN FLOW TIME STEP  80 STRESS PERIOD   2
    11 TOTAL ITERATIONS
 
 SOLVING FOR HEAD 
 FLOW MODEL IS TRANSIENT
 FLOW MODEL CONTAINS CONSTANT-HEAD CELLS


 MAXIMUM STEPSIZE DURING WHICH ANY PARTICLE CANNOT MOVE MORE THAN ONE CELL
 = 0.1187    (WHEN MIN. R.F.=1)  AT K=   3, I=   2, J=  33

 MAXIMUM STEPSIZE WHICH MEETS STABILITY CRITERION OF THE ADVECTION TERM
 (FOR PURE FINITE-DIFFERENCE OPTION, MIXELM=0) 
 = 0.8136E-01(WHEN MIN. R.F.=1)  AT K=   3, I=   2, J=  32


 TOTAL NUMBER OF POINT SOURCES/SINKS PRESENT IN THE FLOW MODEL =   240

 MAXIMUM STEPSIZE WHICH MEETS STABILITY CRITERION OF THE SINK & SOURCE TERM
 = 0.1000E+31(WHEN MIN. R.F.=1)  AT K=   0, I=   0, J=   0

 MAXIMUM STEPSIZE WHICH MEETS STABILITY CRITERION OF THE DISPERSION TERM
 = 0.5604E-02(WHEN MIN. R.F.=1)  AT K=   3, I=   2, J=  32
     1 CALLS TO GCG PACKAGE FOR TRANSPORT TIME STEP   4 IN FLOW TIME STEP  80 STRESS PERIOD   2
    11 TOTAL ITERATIONS
 
 SOLVING FOR HEAD 
 FLOW MODEL IS TRANSIENT
 FLOW MODEL CONTAINS CONSTANT-HEAD CELLS


 MAXIMUM STEPSIZE DURING WHICH ANY PARTICLE CANNOT MOVE MORE THAN ONE CELL
 = 0.1187    (WHEN MIN. R.F.=1)  AT K=   3, I=   2, J=  33

 MAXIMUM STEPSIZE WHICH MEETS STABILITY CRITERION OF THE ADVECTION TERM
 (FOR PURE FINITE-DIFFERENCE OPTION, MIXELM=0) 
 = 0.8136E-01(WHEN MIN. R.F.=1)  AT K=   3, I=   2, J=  32


 TOTAL NUMBER OF POINT SOURCES/SINKS PRESENT IN THE FLOW MODEL =   240

 MAXIMUM STEPSIZE WHICH MEETS STABILITY CRITERION OF THE SINK & SOURCE TERM
 = 0.1000E+31(WHEN MIN. R.F.=1)  AT K=   0, I=   0, J=   0

 MAXIMUM STEPSIZE WHICH MEETS STABILITY CRITERION OF THE DISPERSION TERM
 = 0.5604E-02(WHEN MIN. R.F.=1)  AT K=   3, I=   2, J=  32
     1 CALLS TO GCG PACKAGE FOR TRANSPORT TIME STEP   5 IN FLOW TIME STEP  80 STRESS PERIOD   2
    11 TOTAL ITERATIONS
 
 SOLVING FOR HEAD 
 FLOW MODEL IS TRANSIENT
 FLOW MODEL CONTAINS CONSTANT-HEAD CELLS


 MAXIMUM STEPSIZE DURING WHICH ANY PARTICLE CANNOT MOVE MORE THAN ONE CELL
 = 0.1187    (WHEN MIN. R.F.=1)  AT K=   3, I=   2, J=  33

 MAXIMUM STEPSIZE WHICH MEETS STABILITY CRITERION OF THE ADVECTION TERM
 (FOR PURE FINITE-DIFFERENCE OPTION, MIXELM=0) 
 = 0.8136E-01(WHEN MIN. R.F.=1)  AT K=   3, I=   2, J=  32


 TOTAL NUMBER OF POINT SOURCES/SINKS PRESENT IN THE FLOW MODEL =   240

 MAXIMUM STEPSIZE WHICH MEETS STABILITY CRITERION OF THE SINK & SOURCE TERM
 = 0.1000E+31(WHEN MIN. R.F.=1)  AT K=   0, I=   0, J=   0

 MAXIMUM STEPSIZE WHICH MEETS STABILITY CRITERION OF THE DISPERSION TERM
 = 0.5604E-02(WHEN MIN. R.F.=1)  AT K=   3, I=   2, J=  32
     1 CALLS TO GCG PACKAGE FOR TRANSPORT TIME STEP   6 IN FLOW TIME STEP  80 STRESS PERIOD   2
    11 TOTAL ITERATIONS
 
 SOLVING FOR HEAD 
 FLOW MODEL IS TRANSIENT
 FLOW MODEL CONTAINS CONSTANT-HEAD CELLS


 MAXIMUM STEPSIZE DURING WHICH ANY PARTICLE CANNOT MOVE MORE THAN ONE CELL
 = 0.1187    (WHEN MIN. R.F.=1)  AT K=   3, I=   2, J=  33

 MAXIMUM STEPSIZE WHICH MEETS STABILITY CRITERION OF THE ADVECTION TERM
 (FOR PURE FINITE-DIFFERENCE OPTION, MIXELM=0) 
 = 0.8136E-01(WHEN MIN. R.F.=1)  AT K=   3, I=   2, J=  32


 TOTAL NUMBER OF POINT SOURCES/SINKS PRESENT IN THE FLOW MODEL =   240

 MAXIMUM STEPSIZE WHICH MEETS STABILITY CRITERION OF THE SINK & SOURCE TERM
 = 0.1000E+31(WHEN MIN. R.F.=1)  AT K=   0, I=   0, J=   0

 MAXIMUM STEPSIZE WHICH MEETS STABILITY CRITERION OF THE DISPERSION TERM
 = 0.5604E-02(WHEN MIN. R.F.=1)  AT K=   3, I=   2, J=  32
     1 CALLS TO GCG PACKAGE FOR TRANSPORT TIME STEP   7 IN FLOW TIME STEP  80 STRESS PERIOD   2
    11 TOTAL ITERATIONS
 
 SOLVING FOR HEAD 
 FLOW MODEL IS TRANSIENT
 FLOW MODEL CONTAINS CONSTANT-HEAD CELLS


 MAXIMUM STEPSIZE DURING WHICH ANY PARTICLE CANNOT MOVE MORE THAN ONE CELL
 = 0.1187    (WHEN MIN. R.F.=1)  AT K=   3, I=   2, J=  33

 MAXIMUM STEPSIZE WHICH MEETS STABILITY CRITERION OF THE ADVECTION TERM
 (FOR PURE FINITE-DIFFERENCE OPTION, MIXELM=0) 
 = 0.8136E-01(WHEN MIN. R.F.=1)  AT K=   3, I=   2, J=  32


 TOTAL NUMBER OF POINT SOURCES/SINKS PRESENT IN THE FLOW MODEL =   240

 MAXIMUM STEPSIZE WHICH MEETS STABILITY CRITERION OF THE SINK & SOURCE TERM
 = 0.1000E+31(WHEN MIN. R.F.=1)  AT K=   0, I=   0, J=   0

 MAXIMUM STEPSIZE WHICH MEETS STABILITY CRITERION OF THE DISPERSION TERM
 = 0.5604E-02(WHEN MIN. R.F.=1)  AT K=   3, I=   2, J=  32
     1 CALLS TO GCG PACKAGE FOR TRANSPORT TIME STEP   8 IN FLOW TIME STEP  80 STRESS PERIOD   2
    11 TOTAL ITERATIONS
 
 SOLVING FOR HEAD 
 FLOW MODEL IS TRANSIENT
 FLOW MODEL CONTAINS CONSTANT-HEAD CELLS


 MAXIMUM STEPSIZE DURING WHICH ANY PARTICLE CANNOT MOVE MORE THAN ONE CELL
 = 0.1187    (WHEN MIN. R.F.=1)  AT K=   3, I=   2, J=  33

 MAXIMUM STEPSIZE WHICH MEETS STABILITY CRITERION OF THE ADVECTION TERM
 (FOR PURE FINITE-DIFFERENCE OPTION, MIXELM=0) 
 = 0.8136E-01(WHEN MIN. R.F.=1)  AT K=   3, I=   2, J=  32


 TOTAL NUMBER OF POINT SOURCES/SINKS PRESENT IN THE FLOW MODEL =   240

 MAXIMUM STEPSIZE WHICH MEETS STABILITY CRITERION OF THE SINK & SOURCE TERM
 = 0.1000E+31(WHEN MIN. R.F.=1)  AT K=   0, I=   0, J=   0

 MAXIMUM STEPSIZE WHICH MEETS STABILITY CRITERION OF THE DISPERSION TERM
 = 0.5604E-02(WHEN MIN. R.F.=1)  AT K=   3, I=   2, J=  32
     1 CALLS TO GCG PACKAGE FOR TRANSPORT TIME STEP   9 IN FLOW TIME STEP  80 STRESS PERIOD   2
    11 TOTAL ITERATIONS
 
 SOLVING FOR HEAD 
 FLOW MODEL IS TRANSIENT
 FLOW MODEL CONTAINS CONSTANT-HEAD CELLS


 MAXIMUM STEPSIZE DURING WHICH ANY PARTICLE CANNOT MOVE MORE THAN ONE CELL
 = 0.1187    (WHEN MIN. R.F.=1)  AT K=   3, I=   2, J=  33

 MAXIMUM STEPSIZE WHICH MEETS STABILITY CRITERION OF THE ADVECTION TERM
 (FOR PURE FINITE-DIFFERENCE OPTION, MIXELM=0) 
 = 0.8136E-01(WHEN MIN. R.F.=1)  AT K=   3, I=   2, J=  32


 TOTAL NUMBER OF POINT SOURCES/SINKS PRESENT IN THE FLOW MODEL =   240

 MAXIMUM STEPSIZE WHICH MEETS STABILITY CRITERION OF THE SINK & SOURCE TERM
 = 0.1000E+31(WHEN MIN. R.F.=1)  AT K=   0, I=   0, J=   0

 MAXIMUM STEPSIZE WHICH MEETS STABILITY CRITERION OF THE DISPERSION TERM
 = 0.5604E-02(WHEN MIN. R.F.=1)  AT K=   3, I=   2, J=  32
     1 CALLS TO GCG PACKAGE FOR TRANSPORT TIME STEP  10 IN FLOW TIME STEP  80 STRESS PERIOD   2
    11 TOTAL ITERATIONS



 >>>>>>>>>>>>>>>>>>>>>>>>>>>>>>>>>>>>>>>>>>>>>>>>>>>>>>>FOR COMPONENT NO. 01<<<<<<<<<<<<<<<<<<<<<<<<<<<<<<<<<<<<<<<<<<<<<<<<<<<<<<<


                                            -------------------------------------------
                                                      TRANSPORT STEP NO.   10
                                            -------------------------------------------

 TOTAL ELAPSED TIME SINCE BEGINNING OF SIMULATION =   80.89030    D   
 .....................................................................

                     CUMULATIVE MASS BUDGETS AT END OF TRANSPORT STEP   10, TIME STEP   80, STRESS PERIOD    2
                     ------------------------------------------------------------------------------------------

                                                             IN                           OUT
                                                      ----------------             ----------------
                               CONSTANT CONCENTRATION:    12001.33                   -7126.622    
                                        CONSTANT HEAD:    0.000000                    0.000000    
                               MASS STOR (FLOW MODEL):   0.1307212E-01              -0.3422144E-02
                                MASS STORAGE (SOLUTE):    9.704144                   -4884.427    
                            ---------------------------------------------------------------------------
                                              [TOTAL]:    12011.05     KG            -12011.05     KG  

                                                          NET (IN - OUT):  -0.3189237E-02
                                                   DISCREPANCY (PERCENT):  -0.2655253E-04
 
 SOLVING FOR HEAD 
 FLOW MODEL IS TRANSIENT
 FLOW MODEL CONTAINS CONSTANT-HEAD CELLS


 MAXIMUM STEPSIZE DURING WHICH ANY PARTICLE CANNOT MOVE MORE THAN ONE CELL
 = 0.1187    (WHEN MIN. R.F.=1)  AT K=   3, I=   2, J=  33

 MAXIMUM STEPSIZE WHICH MEETS STABILITY CRITERION OF THE ADVECTION TERM
 (FOR PURE FINITE-DIFFERENCE OPTION, MIXELM=0) 
 = 0.8136E-01(WHEN MIN. R.F.=1)  AT K=   3, I=   2, J=  32


 TOTAL NUMBER OF POINT SOURCES/SINKS PRESENT IN THE FLOW MODEL =   240

 MAXIMUM STEPSIZE WHICH MEETS STABILITY CRITERION OF THE SINK & SOURCE TERM
 = 0.1000E+31(WHEN MIN. R.F.=1)  AT K=   0, I=   0, J=   0

 MAXIMUM STEPSIZE WHICH MEETS STABILITY CRITERION OF THE DISPERSION TERM
 = 0.5604E-02(WHEN MIN. R.F.=1)  AT K=   3, I=   2, J=  32
     1 CALLS TO GCG PACKAGE FOR TRANSPORT TIME STEP  11 IN FLOW TIME STEP  80 STRESS PERIOD   2
    11 TOTAL ITERATIONS
 
 SOLVING FOR HEAD 
 FLOW MODEL IS TRANSIENT
 FLOW MODEL CONTAINS CONSTANT-HEAD CELLS


 MAXIMUM STEPSIZE DURING WHICH ANY PARTICLE CANNOT MOVE MORE THAN ONE CELL
 = 0.1187    (WHEN MIN. R.F.=1)  AT K=   3, I=   2, J=  33

 MAXIMUM STEPSIZE WHICH MEETS STABILITY CRITERION OF THE ADVECTION TERM
 (FOR PURE FINITE-DIFFERENCE OPTION, MIXELM=0) 
 = 0.8136E-01(WHEN MIN. R.F.=1)  AT K=   3, I=   2, J=  32


 TOTAL NUMBER OF POINT SOURCES/SINKS PRESENT IN THE FLOW MODEL =   240

 MAXIMUM STEPSIZE WHICH MEETS STABILITY CRITERION OF THE SINK & SOURCE TERM
 = 0.1000E+31(WHEN MIN. R.F.=1)  AT K=   0, I=   0, J=   0

 MAXIMUM STEPSIZE WHICH MEETS STABILITY CRITERION OF THE DISPERSION TERM
 = 0.5604E-02(WHEN MIN. R.F.=1)  AT K=   3, I=   2, J=  32
     1 CALLS TO GCG PACKAGE FOR TRANSPORT TIME STEP  12 IN FLOW TIME STEP  80 STRESS PERIOD   2
     5 TOTAL ITERATIONS
  MAXIMUM CONCENTRATION CHANGES FOR EACH ITERATION:
  MAX. CHANGE LAYER,ROW,COL MAX. CHANGE LAYER,ROW,COL MAX. CHANGE LAYER,ROW,COL MAX. CHANGE LAYER,ROW,COL MAX. CHANGE LAYER,ROW,COL
 ------------------------------------------------------------------------------------------------------------------------------------
   0.1239E-03 ( 16,  2, 54)  0.5777E-05 (  6,  2, 61)  0.8397E-06 (  5,  2, 57)  0.1713E-06 (  7,  2, 60)  0.6673E-07 (  4,  2, 32)


                                          ================================================
                                                         FROM TIME =   81.000     TO    82.000    

 
 SOLVING FOR HEAD 
 FLOW MODEL IS TRANSIENT
 FLOW MODEL CONTAINS CONSTANT-HEAD CELLS


 MAXIMUM STEPSIZE DURING WHICH ANY PARTICLE CANNOT MOVE MORE THAN ONE CELL
 = 0.1187    (WHEN MIN. R.F.=1)  AT K=   3, I=   2, J=  33

 MAXIMUM STEPSIZE WHICH MEETS STABILITY CRITERION OF THE ADVECTION TERM
 (FOR PURE FINITE-DIFFERENCE OPTION, MIXELM=0) 
 = 0.8136E-01(WHEN MIN. R.F.=1)  AT K=   3, I=   2, J=  32


 TOTAL NUMBER OF POINT SOURCES/SINKS PRESENT IN THE FLOW MODEL =   240

 MAXIMUM STEPSIZE WHICH MEETS STABILITY CRITERION OF THE SINK & SOURCE TERM
 = 0.1000E+31(WHEN MIN. R.F.=1)  AT K=   0, I=   0, J=   0

 MAXIMUM STEPSIZE WHICH MEETS STABILITY CRITERION OF THE DISPERSION TERM
 = 0.5604E-02(WHEN MIN. R.F.=1)  AT K=   3, I=   2, J=  32


     1 CALLS TO GCG PACKAGE FOR TRANSPORT TIME STEP   1 IN FLOW TIME STEP  81 STRESS PERIOD   2
    11 TOTAL ITERATIONS

 NO OUTPUT CONTROL FOR STRESS PERIOD    2   TIME STEP  81
 
 SOLVING FOR HEAD 
 FLOW MODEL IS TRANSIENT
 FLOW MODEL CONTAINS CONSTANT-HEAD CELLS


 MAXIMUM STEPSIZE DURING WHICH ANY PARTICLE CANNOT MOVE MORE THAN ONE CELL
 = 0.1187    (WHEN MIN. R.F.=1)  AT K=   3, I=   2, J=  33

 MAXIMUM STEPSIZE WHICH MEETS STABILITY CRITERION OF THE ADVECTION TERM
 (FOR PURE FINITE-DIFFERENCE OPTION, MIXELM=0) 
 = 0.8136E-01(WHEN MIN. R.F.=1)  AT K=   3, I=   2, J=  32


 TOTAL NUMBER OF POINT SOURCES/SINKS PRESENT IN THE FLOW MODEL =   240

 MAXIMUM STEPSIZE WHICH MEETS STABILITY CRITERION OF THE SINK & SOURCE TERM
 = 0.1000E+31(WHEN MIN. R.F.=1)  AT K=   0, I=   0, J=   0

 MAXIMUM STEPSIZE WHICH MEETS STABILITY CRITERION OF THE DISPERSION TERM
 = 0.5604E-02(WHEN MIN. R.F.=1)  AT K=   3, I=   2, J=  32
     1 CALLS TO GCG PACKAGE FOR TRANSPORT TIME STEP   2 IN FLOW TIME STEP  81 STRESS PERIOD   2
    10 TOTAL ITERATIONS
 
 SOLVING FOR HEAD 
 FLOW MODEL IS TRANSIENT
 FLOW MODEL CONTAINS CONSTANT-HEAD CELLS


 MAXIMUM STEPSIZE DURING WHICH ANY PARTICLE CANNOT MOVE MORE THAN ONE CELL
 = 0.1187    (WHEN MIN. R.F.=1)  AT K=   3, I=   2, J=  33

 MAXIMUM STEPSIZE WHICH MEETS STABILITY CRITERION OF THE ADVECTION TERM
 (FOR PURE FINITE-DIFFERENCE OPTION, MIXELM=0) 
 = 0.8136E-01(WHEN MIN. R.F.=1)  AT K=   3, I=   2, J=  32


 TOTAL NUMBER OF POINT SOURCES/SINKS PRESENT IN THE FLOW MODEL =   240

 MAXIMUM STEPSIZE WHICH MEETS STABILITY CRITERION OF THE SINK & SOURCE TERM
 = 0.1000E+31(WHEN MIN. R.F.=1)  AT K=   0, I=   0, J=   0

 MAXIMUM STEPSIZE WHICH MEETS STABILITY CRITERION OF THE DISPERSION TERM
 = 0.5604E-02(WHEN MIN. R.F.=1)  AT K=   3, I=   2, J=  32
     1 CALLS TO GCG PACKAGE FOR TRANSPORT TIME STEP   3 IN FLOW TIME STEP  81 STRESS PERIOD   2
    11 TOTAL ITERATIONS
 
 SOLVING FOR HEAD 
 FLOW MODEL IS TRANSIENT
 FLOW MODEL CONTAINS CONSTANT-HEAD CELLS


 MAXIMUM STEPSIZE DURING WHICH ANY PARTICLE CANNOT MOVE MORE THAN ONE CELL
 = 0.1187    (WHEN MIN. R.F.=1)  AT K=   3, I=   2, J=  33

 MAXIMUM STEPSIZE WHICH MEETS STABILITY CRITERION OF THE ADVECTION TERM
 (FOR PURE FINITE-DIFFERENCE OPTION, MIXELM=0) 
 = 0.8136E-01(WHEN MIN. R.F.=1)  AT K=   3, I=   2, J=  32


 TOTAL NUMBER OF POINT SOURCES/SINKS PRESENT IN THE FLOW MODEL =   240

 MAXIMUM STEPSIZE WHICH MEETS STABILITY CRITERION OF THE SINK & SOURCE TERM
 = 0.1000E+31(WHEN MIN. R.F.=1)  AT K=   0, I=   0, J=   0

 MAXIMUM STEPSIZE WHICH MEETS STABILITY CRITERION OF THE DISPERSION TERM
 = 0.5604E-02(WHEN MIN. R.F.=1)  AT K=   3, I=   2, J=  32
     1 CALLS TO GCG PACKAGE FOR TRANSPORT TIME STEP   4 IN FLOW TIME STEP  81 STRESS PERIOD   2
    11 TOTAL ITERATIONS
 
 SOLVING FOR HEAD 
 FLOW MODEL IS TRANSIENT
 FLOW MODEL CONTAINS CONSTANT-HEAD CELLS


 MAXIMUM STEPSIZE DURING WHICH ANY PARTICLE CANNOT MOVE MORE THAN ONE CELL
 = 0.1187    (WHEN MIN. R.F.=1)  AT K=   3, I=   2, J=  33

 MAXIMUM STEPSIZE WHICH MEETS STABILITY CRITERION OF THE ADVECTION TERM
 (FOR PURE FINITE-DIFFERENCE OPTION, MIXELM=0) 
 = 0.8136E-01(WHEN MIN. R.F.=1)  AT K=   3, I=   2, J=  32


 TOTAL NUMBER OF POINT SOURCES/SINKS PRESENT IN THE FLOW MODEL =   240

 MAXIMUM STEPSIZE WHICH MEETS STABILITY CRITERION OF THE SINK & SOURCE TERM
 = 0.1000E+31(WHEN MIN. R.F.=1)  AT K=   0, I=   0, J=   0

 MAXIMUM STEPSIZE WHICH MEETS STABILITY CRITERION OF THE DISPERSION TERM
 = 0.5604E-02(WHEN MIN. R.F.=1)  AT K=   3, I=   2, J=  32
     1 CALLS TO GCG PACKAGE FOR TRANSPORT TIME STEP   5 IN FLOW TIME STEP  81 STRESS PERIOD   2
    11 TOTAL ITERATIONS
 
 SOLVING FOR HEAD 
 FLOW MODEL IS TRANSIENT
 FLOW MODEL CONTAINS CONSTANT-HEAD CELLS


 MAXIMUM STEPSIZE DURING WHICH ANY PARTICLE CANNOT MOVE MORE THAN ONE CELL
 = 0.1187    (WHEN MIN. R.F.=1)  AT K=   3, I=   2, J=  33

 MAXIMUM STEPSIZE WHICH MEETS STABILITY CRITERION OF THE ADVECTION TERM
 (FOR PURE FINITE-DIFFERENCE OPTION, MIXELM=0) 
 = 0.8136E-01(WHEN MIN. R.F.=1)  AT K=   3, I=   2, J=  32


 TOTAL NUMBER OF POINT SOURCES/SINKS PRESENT IN THE FLOW MODEL =   240

 MAXIMUM STEPSIZE WHICH MEETS STABILITY CRITERION OF THE SINK & SOURCE TERM
 = 0.1000E+31(WHEN MIN. R.F.=1)  AT K=   0, I=   0, J=   0

 MAXIMUM STEPSIZE WHICH MEETS STABILITY CRITERION OF THE DISPERSION TERM
 = 0.5604E-02(WHEN MIN. R.F.=1)  AT K=   3, I=   2, J=  32
     1 CALLS TO GCG PACKAGE FOR TRANSPORT TIME STEP   6 IN FLOW TIME STEP  81 STRESS PERIOD   2
    11 TOTAL ITERATIONS
 
 SOLVING FOR HEAD 
 FLOW MODEL IS TRANSIENT
 FLOW MODEL CONTAINS CONSTANT-HEAD CELLS


 MAXIMUM STEPSIZE DURING WHICH ANY PARTICLE CANNOT MOVE MORE THAN ONE CELL
 = 0.1187    (WHEN MIN. R.F.=1)  AT K=   3, I=   2, J=  33

 MAXIMUM STEPSIZE WHICH MEETS STABILITY CRITERION OF THE ADVECTION TERM
 (FOR PURE FINITE-DIFFERENCE OPTION, MIXELM=0) 
 = 0.8136E-01(WHEN MIN. R.F.=1)  AT K=   3, I=   2, J=  32


 TOTAL NUMBER OF POINT SOURCES/SINKS PRESENT IN THE FLOW MODEL =   240

 MAXIMUM STEPSIZE WHICH MEETS STABILITY CRITERION OF THE SINK & SOURCE TERM
 = 0.1000E+31(WHEN MIN. R.F.=1)  AT K=   0, I=   0, J=   0

 MAXIMUM STEPSIZE WHICH MEETS STABILITY CRITERION OF THE DISPERSION TERM
 = 0.5604E-02(WHEN MIN. R.F.=1)  AT K=   3, I=   2, J=  32
     1 CALLS TO GCG PACKAGE FOR TRANSPORT TIME STEP   7 IN FLOW TIME STEP  81 STRESS PERIOD   2
    11 TOTAL ITERATIONS
 
 SOLVING FOR HEAD 
 FLOW MODEL IS TRANSIENT
 FLOW MODEL CONTAINS CONSTANT-HEAD CELLS


 MAXIMUM STEPSIZE DURING WHICH ANY PARTICLE CANNOT MOVE MORE THAN ONE CELL
 = 0.1187    (WHEN MIN. R.F.=1)  AT K=   3, I=   2, J=  33

 MAXIMUM STEPSIZE WHICH MEETS STABILITY CRITERION OF THE ADVECTION TERM
 (FOR PURE FINITE-DIFFERENCE OPTION, MIXELM=0) 
 = 0.8136E-01(WHEN MIN. R.F.=1)  AT K=   3, I=   2, J=  32


 TOTAL NUMBER OF POINT SOURCES/SINKS PRESENT IN THE FLOW MODEL =   240

 MAXIMUM STEPSIZE WHICH MEETS STABILITY CRITERION OF THE SINK & SOURCE TERM
 = 0.1000E+31(WHEN MIN. R.F.=1)  AT K=   0, I=   0, J=   0

 MAXIMUM STEPSIZE WHICH MEETS STABILITY CRITERION OF THE DISPERSION TERM
 = 0.5604E-02(WHEN MIN. R.F.=1)  AT K=   3, I=   2, J=  32
     1 CALLS TO GCG PACKAGE FOR TRANSPORT TIME STEP   8 IN FLOW TIME STEP  81 STRESS PERIOD   2
    11 TOTAL ITERATIONS
 
 SOLVING FOR HEAD 
 FLOW MODEL IS TRANSIENT
 FLOW MODEL CONTAINS CONSTANT-HEAD CELLS


 MAXIMUM STEPSIZE DURING WHICH ANY PARTICLE CANNOT MOVE MORE THAN ONE CELL
 = 0.1187    (WHEN MIN. R.F.=1)  AT K=   3, I=   2, J=  33

 MAXIMUM STEPSIZE WHICH MEETS STABILITY CRITERION OF THE ADVECTION TERM
 (FOR PURE FINITE-DIFFERENCE OPTION, MIXELM=0) 
 = 0.8136E-01(WHEN MIN. R.F.=1)  AT K=   3, I=   2, J=  32


 TOTAL NUMBER OF POINT SOURCES/SINKS PRESENT IN THE FLOW MODEL =   240

 MAXIMUM STEPSIZE WHICH MEETS STABILITY CRITERION OF THE SINK & SOURCE TERM
 = 0.1000E+31(WHEN MIN. R.F.=1)  AT K=   0, I=   0, J=   0

 MAXIMUM STEPSIZE WHICH MEETS STABILITY CRITERION OF THE DISPERSION TERM
 = 0.5604E-02(WHEN MIN. R.F.=1)  AT K=   3, I=   2, J=  32
     1 CALLS TO GCG PACKAGE FOR TRANSPORT TIME STEP   9 IN FLOW TIME STEP  81 STRESS PERIOD   2
    11 TOTAL ITERATIONS
 
 SOLVING FOR HEAD 
 FLOW MODEL IS TRANSIENT
 FLOW MODEL CONTAINS CONSTANT-HEAD CELLS


 MAXIMUM STEPSIZE DURING WHICH ANY PARTICLE CANNOT MOVE MORE THAN ONE CELL
 = 0.1187    (WHEN MIN. R.F.=1)  AT K=   3, I=   2, J=  33

 MAXIMUM STEPSIZE WHICH MEETS STABILITY CRITERION OF THE ADVECTION TERM
 (FOR PURE FINITE-DIFFERENCE OPTION, MIXELM=0) 
 = 0.8136E-01(WHEN MIN. R.F.=1)  AT K=   3, I=   2, J=  32


 TOTAL NUMBER OF POINT SOURCES/SINKS PRESENT IN THE FLOW MODEL =   240

 MAXIMUM STEPSIZE WHICH MEETS STABILITY CRITERION OF THE SINK & SOURCE TERM
 = 0.1000E+31(WHEN MIN. R.F.=1)  AT K=   0, I=   0, J=   0

 MAXIMUM STEPSIZE WHICH MEETS STABILITY CRITERION OF THE DISPERSION TERM
 = 0.5604E-02(WHEN MIN. R.F.=1)  AT K=   3, I=   2, J=  32
     1 CALLS TO GCG PACKAGE FOR TRANSPORT TIME STEP  10 IN FLOW TIME STEP  81 STRESS PERIOD   2
    11 TOTAL ITERATIONS



 >>>>>>>>>>>>>>>>>>>>>>>>>>>>>>>>>>>>>>>>>>>>>>>>>>>>>>>FOR COMPONENT NO. 01<<<<<<<<<<<<<<<<<<<<<<<<<<<<<<<<<<<<<<<<<<<<<<<<<<<<<<<


                                            -------------------------------------------
                                                      TRANSPORT STEP NO.   10
                                            -------------------------------------------

 TOTAL ELAPSED TIME SINCE BEGINNING OF SIMULATION =   81.89029    D   
 .....................................................................

                     CUMULATIVE MASS BUDGETS AT END OF TRANSPORT STEP   10, TIME STEP   81, STRESS PERIOD    2
                     ------------------------------------------------------------------------------------------

                                                             IN                           OUT
                                                      ----------------             ----------------
                               CONSTANT CONCENTRATION:    12106.30                   -7219.578    
                                        CONSTANT HEAD:    0.000000                    0.000000    
                               MASS STOR (FLOW MODEL):   0.1308596E-01              -0.3424380E-02
                                MASS STORAGE (SOLUTE):    9.886176                   -4896.617    
                            ---------------------------------------------------------------------------
                                              [TOTAL]:    12116.20     KG            -12116.20     KG  

                                                          NET (IN - OUT):  -0.3177184E-02
                                                   DISCREPANCY (PERCENT):  -0.2622261E-04
 
 SOLVING FOR HEAD 
 FLOW MODEL IS TRANSIENT
 FLOW MODEL CONTAINS CONSTANT-HEAD CELLS


 MAXIMUM STEPSIZE DURING WHICH ANY PARTICLE CANNOT MOVE MORE THAN ONE CELL
 = 0.1187    (WHEN MIN. R.F.=1)  AT K=   3, I=   2, J=  33

 MAXIMUM STEPSIZE WHICH MEETS STABILITY CRITERION OF THE ADVECTION TERM
 (FOR PURE FINITE-DIFFERENCE OPTION, MIXELM=0) 
 = 0.8136E-01(WHEN MIN. R.F.=1)  AT K=   3, I=   2, J=  32


 TOTAL NUMBER OF POINT SOURCES/SINKS PRESENT IN THE FLOW MODEL =   240

 MAXIMUM STEPSIZE WHICH MEETS STABILITY CRITERION OF THE SINK & SOURCE TERM
 = 0.1000E+31(WHEN MIN. R.F.=1)  AT K=   0, I=   0, J=   0

 MAXIMUM STEPSIZE WHICH MEETS STABILITY CRITERION OF THE DISPERSION TERM
 = 0.5604E-02(WHEN MIN. R.F.=1)  AT K=   3, I=   2, J=  32
     1 CALLS TO GCG PACKAGE FOR TRANSPORT TIME STEP  11 IN FLOW TIME STEP  81 STRESS PERIOD   2
    11 TOTAL ITERATIONS
 
 SOLVING FOR HEAD 
 FLOW MODEL IS TRANSIENT
 FLOW MODEL CONTAINS CONSTANT-HEAD CELLS


 MAXIMUM STEPSIZE DURING WHICH ANY PARTICLE CANNOT MOVE MORE THAN ONE CELL
 = 0.1187    (WHEN MIN. R.F.=1)  AT K=   3, I=   2, J=  33

 MAXIMUM STEPSIZE WHICH MEETS STABILITY CRITERION OF THE ADVECTION TERM
 (FOR PURE FINITE-DIFFERENCE OPTION, MIXELM=0) 
 = 0.8136E-01(WHEN MIN. R.F.=1)  AT K=   3, I=   2, J=  32


 TOTAL NUMBER OF POINT SOURCES/SINKS PRESENT IN THE FLOW MODEL =   240

 MAXIMUM STEPSIZE WHICH MEETS STABILITY CRITERION OF THE SINK & SOURCE TERM
 = 0.1000E+31(WHEN MIN. R.F.=1)  AT K=   0, I=   0, J=   0

 MAXIMUM STEPSIZE WHICH MEETS STABILITY CRITERION OF THE DISPERSION TERM
 = 0.5604E-02(WHEN MIN. R.F.=1)  AT K=   3, I=   2, J=  32
     1 CALLS TO GCG PACKAGE FOR TRANSPORT TIME STEP  12 IN FLOW TIME STEP  81 STRESS PERIOD   2
     5 TOTAL ITERATIONS
  MAXIMUM CONCENTRATION CHANGES FOR EACH ITERATION:
  MAX. CHANGE LAYER,ROW,COL MAX. CHANGE LAYER,ROW,COL MAX. CHANGE LAYER,ROW,COL MAX. CHANGE LAYER,ROW,COL MAX. CHANGE LAYER,ROW,COL
 ------------------------------------------------------------------------------------------------------------------------------------
   0.1237E-03 ( 16,  2, 53)  0.5621E-05 (  6,  2, 61)  0.8148E-06 (  5,  2, 57)  0.1613E-06 (  7,  2, 60)  0.6825E-07 (  4,  2, 33)


                                          ================================================
                                                         FROM TIME =   82.000     TO    83.000    

 
 SOLVING FOR HEAD 
 FLOW MODEL IS TRANSIENT
 FLOW MODEL CONTAINS CONSTANT-HEAD CELLS


 MAXIMUM STEPSIZE DURING WHICH ANY PARTICLE CANNOT MOVE MORE THAN ONE CELL
 = 0.1187    (WHEN MIN. R.F.=1)  AT K=   3, I=   2, J=  33

 MAXIMUM STEPSIZE WHICH MEETS STABILITY CRITERION OF THE ADVECTION TERM
 (FOR PURE FINITE-DIFFERENCE OPTION, MIXELM=0) 
 = 0.8136E-01(WHEN MIN. R.F.=1)  AT K=   3, I=   2, J=  32


 TOTAL NUMBER OF POINT SOURCES/SINKS PRESENT IN THE FLOW MODEL =   240

 MAXIMUM STEPSIZE WHICH MEETS STABILITY CRITERION OF THE SINK & SOURCE TERM
 = 0.1000E+31(WHEN MIN. R.F.=1)  AT K=   0, I=   0, J=   0

 MAXIMUM STEPSIZE WHICH MEETS STABILITY CRITERION OF THE DISPERSION TERM
 = 0.5604E-02(WHEN MIN. R.F.=1)  AT K=   3, I=   2, J=  32


     1 CALLS TO GCG PACKAGE FOR TRANSPORT TIME STEP   1 IN FLOW TIME STEP  82 STRESS PERIOD   2
    11 TOTAL ITERATIONS

 NO OUTPUT CONTROL FOR STRESS PERIOD    2   TIME STEP  82
 
 SOLVING FOR HEAD 
 FLOW MODEL IS TRANSIENT
 FLOW MODEL CONTAINS CONSTANT-HEAD CELLS


 MAXIMUM STEPSIZE DURING WHICH ANY PARTICLE CANNOT MOVE MORE THAN ONE CELL
 = 0.1187    (WHEN MIN. R.F.=1)  AT K=   3, I=   2, J=  33

 MAXIMUM STEPSIZE WHICH MEETS STABILITY CRITERION OF THE ADVECTION TERM
 (FOR PURE FINITE-DIFFERENCE OPTION, MIXELM=0) 
 = 0.8136E-01(WHEN MIN. R.F.=1)  AT K=   3, I=   2, J=  32


 TOTAL NUMBER OF POINT SOURCES/SINKS PRESENT IN THE FLOW MODEL =   240

 MAXIMUM STEPSIZE WHICH MEETS STABILITY CRITERION OF THE SINK & SOURCE TERM
 = 0.1000E+31(WHEN MIN. R.F.=1)  AT K=   0, I=   0, J=   0

 MAXIMUM STEPSIZE WHICH MEETS STABILITY CRITERION OF THE DISPERSION TERM
 = 0.5604E-02(WHEN MIN. R.F.=1)  AT K=   3, I=   2, J=  32
     1 CALLS TO GCG PACKAGE FOR TRANSPORT TIME STEP   2 IN FLOW TIME STEP  82 STRESS PERIOD   2
    11 TOTAL ITERATIONS
 
 SOLVING FOR HEAD 
 FLOW MODEL IS TRANSIENT
 FLOW MODEL CONTAINS CONSTANT-HEAD CELLS


 MAXIMUM STEPSIZE DURING WHICH ANY PARTICLE CANNOT MOVE MORE THAN ONE CELL
 = 0.1187    (WHEN MIN. R.F.=1)  AT K=   3, I=   2, J=  33

 MAXIMUM STEPSIZE WHICH MEETS STABILITY CRITERION OF THE ADVECTION TERM
 (FOR PURE FINITE-DIFFERENCE OPTION, MIXELM=0) 
 = 0.8136E-01(WHEN MIN. R.F.=1)  AT K=   3, I=   2, J=  32


 TOTAL NUMBER OF POINT SOURCES/SINKS PRESENT IN THE FLOW MODEL =   240

 MAXIMUM STEPSIZE WHICH MEETS STABILITY CRITERION OF THE SINK & SOURCE TERM
 = 0.1000E+31(WHEN MIN. R.F.=1)  AT K=   0, I=   0, J=   0

 MAXIMUM STEPSIZE WHICH MEETS STABILITY CRITERION OF THE DISPERSION TERM
 = 0.5604E-02(WHEN MIN. R.F.=1)  AT K=   3, I=   2, J=  32
     1 CALLS TO GCG PACKAGE FOR TRANSPORT TIME STEP   3 IN FLOW TIME STEP  82 STRESS PERIOD   2
    11 TOTAL ITERATIONS
 
 SOLVING FOR HEAD 
 FLOW MODEL IS TRANSIENT
 FLOW MODEL CONTAINS CONSTANT-HEAD CELLS


 MAXIMUM STEPSIZE DURING WHICH ANY PARTICLE CANNOT MOVE MORE THAN ONE CELL
 = 0.1187    (WHEN MIN. R.F.=1)  AT K=   3, I=   2, J=  33

 MAXIMUM STEPSIZE WHICH MEETS STABILITY CRITERION OF THE ADVECTION TERM
 (FOR PURE FINITE-DIFFERENCE OPTION, MIXELM=0) 
 = 0.8136E-01(WHEN MIN. R.F.=1)  AT K=   3, I=   2, J=  32


 TOTAL NUMBER OF POINT SOURCES/SINKS PRESENT IN THE FLOW MODEL =   240

 MAXIMUM STEPSIZE WHICH MEETS STABILITY CRITERION OF THE SINK & SOURCE TERM
 = 0.1000E+31(WHEN MIN. R.F.=1)  AT K=   0, I=   0, J=   0

 MAXIMUM STEPSIZE WHICH MEETS STABILITY CRITERION OF THE DISPERSION TERM
 = 0.5604E-02(WHEN MIN. R.F.=1)  AT K=   3, I=   2, J=  32
     1 CALLS TO GCG PACKAGE FOR TRANSPORT TIME STEP   4 IN FLOW TIME STEP  82 STRESS PERIOD   2
    11 TOTAL ITERATIONS
 
 SOLVING FOR HEAD 
 FLOW MODEL IS TRANSIENT
 FLOW MODEL CONTAINS CONSTANT-HEAD CELLS


 MAXIMUM STEPSIZE DURING WHICH ANY PARTICLE CANNOT MOVE MORE THAN ONE CELL
 = 0.1187    (WHEN MIN. R.F.=1)  AT K=   3, I=   2, J=  33

 MAXIMUM STEPSIZE WHICH MEETS STABILITY CRITERION OF THE ADVECTION TERM
 (FOR PURE FINITE-DIFFERENCE OPTION, MIXELM=0) 
 = 0.8136E-01(WHEN MIN. R.F.=1)  AT K=   3, I=   2, J=  32


 TOTAL NUMBER OF POINT SOURCES/SINKS PRESENT IN THE FLOW MODEL =   240

 MAXIMUM STEPSIZE WHICH MEETS STABILITY CRITERION OF THE SINK & SOURCE TERM
 = 0.1000E+31(WHEN MIN. R.F.=1)  AT K=   0, I=   0, J=   0

 MAXIMUM STEPSIZE WHICH MEETS STABILITY CRITERION OF THE DISPERSION TERM
 = 0.5604E-02(WHEN MIN. R.F.=1)  AT K=   3, I=   2, J=  32
     1 CALLS TO GCG PACKAGE FOR TRANSPORT TIME STEP   5 IN FLOW TIME STEP  82 STRESS PERIOD   2
    11 TOTAL ITERATIONS
 
 SOLVING FOR HEAD 
 FLOW MODEL IS TRANSIENT
 FLOW MODEL CONTAINS CONSTANT-HEAD CELLS


 MAXIMUM STEPSIZE DURING WHICH ANY PARTICLE CANNOT MOVE MORE THAN ONE CELL
 = 0.1187    (WHEN MIN. R.F.=1)  AT K=   3, I=   2, J=  33

 MAXIMUM STEPSIZE WHICH MEETS STABILITY CRITERION OF THE ADVECTION TERM
 (FOR PURE FINITE-DIFFERENCE OPTION, MIXELM=0) 
 = 0.8136E-01(WHEN MIN. R.F.=1)  AT K=   3, I=   2, J=  32


 TOTAL NUMBER OF POINT SOURCES/SINKS PRESENT IN THE FLOW MODEL =   240

 MAXIMUM STEPSIZE WHICH MEETS STABILITY CRITERION OF THE SINK & SOURCE TERM
 = 0.1000E+31(WHEN MIN. R.F.=1)  AT K=   0, I=   0, J=   0

 MAXIMUM STEPSIZE WHICH MEETS STABILITY CRITERION OF THE DISPERSION TERM
 = 0.5604E-02(WHEN MIN. R.F.=1)  AT K=   3, I=   2, J=  32
     1 CALLS TO GCG PACKAGE FOR TRANSPORT TIME STEP   6 IN FLOW TIME STEP  82 STRESS PERIOD   2
    11 TOTAL ITERATIONS
 
 SOLVING FOR HEAD 
 FLOW MODEL IS TRANSIENT
 FLOW MODEL CONTAINS CONSTANT-HEAD CELLS


 MAXIMUM STEPSIZE DURING WHICH ANY PARTICLE CANNOT MOVE MORE THAN ONE CELL
 = 0.1187    (WHEN MIN. R.F.=1)  AT K=   3, I=   2, J=  33

 MAXIMUM STEPSIZE WHICH MEETS STABILITY CRITERION OF THE ADVECTION TERM
 (FOR PURE FINITE-DIFFERENCE OPTION, MIXELM=0) 
 = 0.8136E-01(WHEN MIN. R.F.=1)  AT K=   3, I=   2, J=  32


 TOTAL NUMBER OF POINT SOURCES/SINKS PRESENT IN THE FLOW MODEL =   240

 MAXIMUM STEPSIZE WHICH MEETS STABILITY CRITERION OF THE SINK & SOURCE TERM
 = 0.1000E+31(WHEN MIN. R.F.=1)  AT K=   0, I=   0, J=   0

 MAXIMUM STEPSIZE WHICH MEETS STABILITY CRITERION OF THE DISPERSION TERM
 = 0.5604E-02(WHEN MIN. R.F.=1)  AT K=   3, I=   2, J=  32
     1 CALLS TO GCG PACKAGE FOR TRANSPORT TIME STEP   7 IN FLOW TIME STEP  82 STRESS PERIOD   2
    11 TOTAL ITERATIONS
 
 SOLVING FOR HEAD 
 FLOW MODEL IS TRANSIENT
 FLOW MODEL CONTAINS CONSTANT-HEAD CELLS


 MAXIMUM STEPSIZE DURING WHICH ANY PARTICLE CANNOT MOVE MORE THAN ONE CELL
 = 0.1187    (WHEN MIN. R.F.=1)  AT K=   3, I=   2, J=  33

 MAXIMUM STEPSIZE WHICH MEETS STABILITY CRITERION OF THE ADVECTION TERM
 (FOR PURE FINITE-DIFFERENCE OPTION, MIXELM=0) 
 = 0.8136E-01(WHEN MIN. R.F.=1)  AT K=   3, I=   2, J=  32


 TOTAL NUMBER OF POINT SOURCES/SINKS PRESENT IN THE FLOW MODEL =   240

 MAXIMUM STEPSIZE WHICH MEETS STABILITY CRITERION OF THE SINK & SOURCE TERM
 = 0.1000E+31(WHEN MIN. R.F.=1)  AT K=   0, I=   0, J=   0

 MAXIMUM STEPSIZE WHICH MEETS STABILITY CRITERION OF THE DISPERSION TERM
 = 0.5604E-02(WHEN MIN. R.F.=1)  AT K=   3, I=   2, J=  32
     1 CALLS TO GCG PACKAGE FOR TRANSPORT TIME STEP   8 IN FLOW TIME STEP  82 STRESS PERIOD   2
    11 TOTAL ITERATIONS
 
 SOLVING FOR HEAD 
 FLOW MODEL IS TRANSIENT
 FLOW MODEL CONTAINS CONSTANT-HEAD CELLS


 MAXIMUM STEPSIZE DURING WHICH ANY PARTICLE CANNOT MOVE MORE THAN ONE CELL
 = 0.1187    (WHEN MIN. R.F.=1)  AT K=   3, I=   2, J=  33

 MAXIMUM STEPSIZE WHICH MEETS STABILITY CRITERION OF THE ADVECTION TERM
 (FOR PURE FINITE-DIFFERENCE OPTION, MIXELM=0) 
 = 0.8136E-01(WHEN MIN. R.F.=1)  AT K=   3, I=   2, J=  32


 TOTAL NUMBER OF POINT SOURCES/SINKS PRESENT IN THE FLOW MODEL =   240

 MAXIMUM STEPSIZE WHICH MEETS STABILITY CRITERION OF THE SINK & SOURCE TERM
 = 0.1000E+31(WHEN MIN. R.F.=1)  AT K=   0, I=   0, J=   0

 MAXIMUM STEPSIZE WHICH MEETS STABILITY CRITERION OF THE DISPERSION TERM
 = 0.5604E-02(WHEN MIN. R.F.=1)  AT K=   3, I=   2, J=  32
     1 CALLS TO GCG PACKAGE FOR TRANSPORT TIME STEP   9 IN FLOW TIME STEP  82 STRESS PERIOD   2
    11 TOTAL ITERATIONS
 
 SOLVING FOR HEAD 
 FLOW MODEL IS TRANSIENT
 FLOW MODEL CONTAINS CONSTANT-HEAD CELLS


 MAXIMUM STEPSIZE DURING WHICH ANY PARTICLE CANNOT MOVE MORE THAN ONE CELL
 = 0.1187    (WHEN MIN. R.F.=1)  AT K=   3, I=   2, J=  33

 MAXIMUM STEPSIZE WHICH MEETS STABILITY CRITERION OF THE ADVECTION TERM
 (FOR PURE FINITE-DIFFERENCE OPTION, MIXELM=0) 
 = 0.8136E-01(WHEN MIN. R.F.=1)  AT K=   3, I=   2, J=  32


 TOTAL NUMBER OF POINT SOURCES/SINKS PRESENT IN THE FLOW MODEL =   240

 MAXIMUM STEPSIZE WHICH MEETS STABILITY CRITERION OF THE SINK & SOURCE TERM
 = 0.1000E+31(WHEN MIN. R.F.=1)  AT K=   0, I=   0, J=   0

 MAXIMUM STEPSIZE WHICH MEETS STABILITY CRITERION OF THE DISPERSION TERM
 = 0.5604E-02(WHEN MIN. R.F.=1)  AT K=   3, I=   2, J=  32
     1 CALLS TO GCG PACKAGE FOR TRANSPORT TIME STEP  10 IN FLOW TIME STEP  82 STRESS PERIOD   2
    11 TOTAL ITERATIONS



 >>>>>>>>>>>>>>>>>>>>>>>>>>>>>>>>>>>>>>>>>>>>>>>>>>>>>>>FOR COMPONENT NO. 01<<<<<<<<<<<<<<<<<<<<<<<<<<<<<<<<<<<<<<<<<<<<<<<<<<<<<<<


                                            -------------------------------------------
                                                      TRANSPORT STEP NO.   10
                                            -------------------------------------------

 TOTAL ELAPSED TIME SINCE BEGINNING OF SIMULATION =   82.89027    D   
 .....................................................................

                     CUMULATIVE MASS BUDGETS AT END OF TRANSPORT STEP   10, TIME STEP   82, STRESS PERIOD    2
                     ------------------------------------------------------------------------------------------

                                                             IN                           OUT
                                                      ----------------             ----------------
                               CONSTANT CONCENTRATION:    12211.12                   -7312.545    
                                        CONSTANT HEAD:    0.000000                    0.000000    
                               MASS STOR (FLOW MODEL):   0.1309971E-01              -0.3426541E-02
                                MASS STORAGE (SOLUTE):    10.05965                   -4908.647    
                            ---------------------------------------------------------------------------
                                              [TOTAL]:    12221.19     KG            -12221.20     KG  

                                                          NET (IN - OUT):  -0.3162806E-02
                                                   DISCREPANCY (PERCENT):  -0.2587968E-04
 
 SOLVING FOR HEAD 
 FLOW MODEL IS TRANSIENT
 FLOW MODEL CONTAINS CONSTANT-HEAD CELLS


 MAXIMUM STEPSIZE DURING WHICH ANY PARTICLE CANNOT MOVE MORE THAN ONE CELL
 = 0.1187    (WHEN MIN. R.F.=1)  AT K=   3, I=   2, J=  33

 MAXIMUM STEPSIZE WHICH MEETS STABILITY CRITERION OF THE ADVECTION TERM
 (FOR PURE FINITE-DIFFERENCE OPTION, MIXELM=0) 
 = 0.8136E-01(WHEN MIN. R.F.=1)  AT K=   3, I=   2, J=  32


 TOTAL NUMBER OF POINT SOURCES/SINKS PRESENT IN THE FLOW MODEL =   240

 MAXIMUM STEPSIZE WHICH MEETS STABILITY CRITERION OF THE SINK & SOURCE TERM
 = 0.1000E+31(WHEN MIN. R.F.=1)  AT K=   0, I=   0, J=   0

 MAXIMUM STEPSIZE WHICH MEETS STABILITY CRITERION OF THE DISPERSION TERM
 = 0.5604E-02(WHEN MIN. R.F.=1)  AT K=   3, I=   2, J=  32
     1 CALLS TO GCG PACKAGE FOR TRANSPORT TIME STEP  11 IN FLOW TIME STEP  82 STRESS PERIOD   2
    11 TOTAL ITERATIONS
 
 SOLVING FOR HEAD 
 FLOW MODEL IS TRANSIENT
 FLOW MODEL CONTAINS CONSTANT-HEAD CELLS


 MAXIMUM STEPSIZE DURING WHICH ANY PARTICLE CANNOT MOVE MORE THAN ONE CELL
 = 0.1187    (WHEN MIN. R.F.=1)  AT K=   3, I=   2, J=  33

 MAXIMUM STEPSIZE WHICH MEETS STABILITY CRITERION OF THE ADVECTION TERM
 (FOR PURE FINITE-DIFFERENCE OPTION, MIXELM=0) 
 = 0.8136E-01(WHEN MIN. R.F.=1)  AT K=   3, I=   2, J=  32


 TOTAL NUMBER OF POINT SOURCES/SINKS PRESENT IN THE FLOW MODEL =   240

 MAXIMUM STEPSIZE WHICH MEETS STABILITY CRITERION OF THE SINK & SOURCE TERM
 = 0.1000E+31(WHEN MIN. R.F.=1)  AT K=   0, I=   0, J=   0

 MAXIMUM STEPSIZE WHICH MEETS STABILITY CRITERION OF THE DISPERSION TERM
 = 0.5604E-02(WHEN MIN. R.F.=1)  AT K=   3, I=   2, J=  32
     1 CALLS TO GCG PACKAGE FOR TRANSPORT TIME STEP  12 IN FLOW TIME STEP  82 STRESS PERIOD   2
     5 TOTAL ITERATIONS
  MAXIMUM CONCENTRATION CHANGES FOR EACH ITERATION:
  MAX. CHANGE LAYER,ROW,COL MAX. CHANGE LAYER,ROW,COL MAX. CHANGE LAYER,ROW,COL MAX. CHANGE LAYER,ROW,COL MAX. CHANGE LAYER,ROW,COL
 ------------------------------------------------------------------------------------------------------------------------------------
   0.1242E-03 ( 16,  2, 53)  0.5470E-05 (  6,  2, 61)  0.7907E-06 (  5,  2, 57)  0.1519E-06 (  7,  2, 60)  0.6099E-07 (  4,  2, 33)


                                          ================================================
                                                         FROM TIME =   83.000     TO    84.000    

 
 SOLVING FOR HEAD 
 FLOW MODEL IS TRANSIENT
 FLOW MODEL CONTAINS CONSTANT-HEAD CELLS


 MAXIMUM STEPSIZE DURING WHICH ANY PARTICLE CANNOT MOVE MORE THAN ONE CELL
 = 0.1187    (WHEN MIN. R.F.=1)  AT K=   3, I=   2, J=  33

 MAXIMUM STEPSIZE WHICH MEETS STABILITY CRITERION OF THE ADVECTION TERM
 (FOR PURE FINITE-DIFFERENCE OPTION, MIXELM=0) 
 = 0.8136E-01(WHEN MIN. R.F.=1)  AT K=   3, I=   2, J=  32


 TOTAL NUMBER OF POINT SOURCES/SINKS PRESENT IN THE FLOW MODEL =   240

 MAXIMUM STEPSIZE WHICH MEETS STABILITY CRITERION OF THE SINK & SOURCE TERM
 = 0.1000E+31(WHEN MIN. R.F.=1)  AT K=   0, I=   0, J=   0

 MAXIMUM STEPSIZE WHICH MEETS STABILITY CRITERION OF THE DISPERSION TERM
 = 0.5604E-02(WHEN MIN. R.F.=1)  AT K=   3, I=   2, J=  32


     1 CALLS TO GCG PACKAGE FOR TRANSPORT TIME STEP   1 IN FLOW TIME STEP  83 STRESS PERIOD   2
    10 TOTAL ITERATIONS

 NO OUTPUT CONTROL FOR STRESS PERIOD    2   TIME STEP  83
 
 SOLVING FOR HEAD 
 FLOW MODEL IS TRANSIENT
 FLOW MODEL CONTAINS CONSTANT-HEAD CELLS


 MAXIMUM STEPSIZE DURING WHICH ANY PARTICLE CANNOT MOVE MORE THAN ONE CELL
 = 0.1187    (WHEN MIN. R.F.=1)  AT K=   3, I=   2, J=  33

 MAXIMUM STEPSIZE WHICH MEETS STABILITY CRITERION OF THE ADVECTION TERM
 (FOR PURE FINITE-DIFFERENCE OPTION, MIXELM=0) 
 = 0.8136E-01(WHEN MIN. R.F.=1)  AT K=   3, I=   2, J=  32


 TOTAL NUMBER OF POINT SOURCES/SINKS PRESENT IN THE FLOW MODEL =   240

 MAXIMUM STEPSIZE WHICH MEETS STABILITY CRITERION OF THE SINK & SOURCE TERM
 = 0.1000E+31(WHEN MIN. R.F.=1)  AT K=   0, I=   0, J=   0

 MAXIMUM STEPSIZE WHICH MEETS STABILITY CRITERION OF THE DISPERSION TERM
 = 0.5604E-02(WHEN MIN. R.F.=1)  AT K=   3, I=   2, J=  32
     1 CALLS TO GCG PACKAGE FOR TRANSPORT TIME STEP   2 IN FLOW TIME STEP  83 STRESS PERIOD   2
    11 TOTAL ITERATIONS
 
 SOLVING FOR HEAD 
 FLOW MODEL IS TRANSIENT
 FLOW MODEL CONTAINS CONSTANT-HEAD CELLS


 MAXIMUM STEPSIZE DURING WHICH ANY PARTICLE CANNOT MOVE MORE THAN ONE CELL
 = 0.1187    (WHEN MIN. R.F.=1)  AT K=   3, I=   2, J=  33

 MAXIMUM STEPSIZE WHICH MEETS STABILITY CRITERION OF THE ADVECTION TERM
 (FOR PURE FINITE-DIFFERENCE OPTION, MIXELM=0) 
 = 0.8136E-01(WHEN MIN. R.F.=1)  AT K=   3, I=   2, J=  32


 TOTAL NUMBER OF POINT SOURCES/SINKS PRESENT IN THE FLOW MODEL =   240

 MAXIMUM STEPSIZE WHICH MEETS STABILITY CRITERION OF THE SINK & SOURCE TERM
 = 0.1000E+31(WHEN MIN. R.F.=1)  AT K=   0, I=   0, J=   0

 MAXIMUM STEPSIZE WHICH MEETS STABILITY CRITERION OF THE DISPERSION TERM
 = 0.5604E-02(WHEN MIN. R.F.=1)  AT K=   3, I=   2, J=  32
     1 CALLS TO GCG PACKAGE FOR TRANSPORT TIME STEP   3 IN FLOW TIME STEP  83 STRESS PERIOD   2
    11 TOTAL ITERATIONS
 
 SOLVING FOR HEAD 
 FLOW MODEL IS TRANSIENT
 FLOW MODEL CONTAINS CONSTANT-HEAD CELLS


 MAXIMUM STEPSIZE DURING WHICH ANY PARTICLE CANNOT MOVE MORE THAN ONE CELL
 = 0.1187    (WHEN MIN. R.F.=1)  AT K=   3, I=   2, J=  33

 MAXIMUM STEPSIZE WHICH MEETS STABILITY CRITERION OF THE ADVECTION TERM
 (FOR PURE FINITE-DIFFERENCE OPTION, MIXELM=0) 
 = 0.8136E-01(WHEN MIN. R.F.=1)  AT K=   3, I=   2, J=  32


 TOTAL NUMBER OF POINT SOURCES/SINKS PRESENT IN THE FLOW MODEL =   240

 MAXIMUM STEPSIZE WHICH MEETS STABILITY CRITERION OF THE SINK & SOURCE TERM
 = 0.1000E+31(WHEN MIN. R.F.=1)  AT K=   0, I=   0, J=   0

 MAXIMUM STEPSIZE WHICH MEETS STABILITY CRITERION OF THE DISPERSION TERM
 = 0.5604E-02(WHEN MIN. R.F.=1)  AT K=   3, I=   2, J=  32
     1 CALLS TO GCG PACKAGE FOR TRANSPORT TIME STEP   4 IN FLOW TIME STEP  83 STRESS PERIOD   2
    10 TOTAL ITERATIONS
 
 SOLVING FOR HEAD 
 FLOW MODEL IS TRANSIENT
 FLOW MODEL CONTAINS CONSTANT-HEAD CELLS


 MAXIMUM STEPSIZE DURING WHICH ANY PARTICLE CANNOT MOVE MORE THAN ONE CELL
 = 0.1187    (WHEN MIN. R.F.=1)  AT K=   3, I=   2, J=  33

 MAXIMUM STEPSIZE WHICH MEETS STABILITY CRITERION OF THE ADVECTION TERM
 (FOR PURE FINITE-DIFFERENCE OPTION, MIXELM=0) 
 = 0.8136E-01(WHEN MIN. R.F.=1)  AT K=   3, I=   2, J=  32


 TOTAL NUMBER OF POINT SOURCES/SINKS PRESENT IN THE FLOW MODEL =   240

 MAXIMUM STEPSIZE WHICH MEETS STABILITY CRITERION OF THE SINK & SOURCE TERM
 = 0.1000E+31(WHEN MIN. R.F.=1)  AT K=   0, I=   0, J=   0

 MAXIMUM STEPSIZE WHICH MEETS STABILITY CRITERION OF THE DISPERSION TERM
 = 0.5604E-02(WHEN MIN. R.F.=1)  AT K=   3, I=   2, J=  32
     1 CALLS TO GCG PACKAGE FOR TRANSPORT TIME STEP   5 IN FLOW TIME STEP  83 STRESS PERIOD   2
    11 TOTAL ITERATIONS
 
 SOLVING FOR HEAD 
 FLOW MODEL IS TRANSIENT
 FLOW MODEL CONTAINS CONSTANT-HEAD CELLS


 MAXIMUM STEPSIZE DURING WHICH ANY PARTICLE CANNOT MOVE MORE THAN ONE CELL
 = 0.1187    (WHEN MIN. R.F.=1)  AT K=   3, I=   2, J=  33

 MAXIMUM STEPSIZE WHICH MEETS STABILITY CRITERION OF THE ADVECTION TERM
 (FOR PURE FINITE-DIFFERENCE OPTION, MIXELM=0) 
 = 0.8136E-01(WHEN MIN. R.F.=1)  AT K=   3, I=   2, J=  32


 TOTAL NUMBER OF POINT SOURCES/SINKS PRESENT IN THE FLOW MODEL =   240

 MAXIMUM STEPSIZE WHICH MEETS STABILITY CRITERION OF THE SINK & SOURCE TERM
 = 0.1000E+31(WHEN MIN. R.F.=1)  AT K=   0, I=   0, J=   0

 MAXIMUM STEPSIZE WHICH MEETS STABILITY CRITERION OF THE DISPERSION TERM
 = 0.5604E-02(WHEN MIN. R.F.=1)  AT K=   3, I=   2, J=  32
     1 CALLS TO GCG PACKAGE FOR TRANSPORT TIME STEP   6 IN FLOW TIME STEP  83 STRESS PERIOD   2
    11 TOTAL ITERATIONS
 
 SOLVING FOR HEAD 
 FLOW MODEL IS TRANSIENT
 FLOW MODEL CONTAINS CONSTANT-HEAD CELLS


 MAXIMUM STEPSIZE DURING WHICH ANY PARTICLE CANNOT MOVE MORE THAN ONE CELL
 = 0.1187    (WHEN MIN. R.F.=1)  AT K=   3, I=   2, J=  33

 MAXIMUM STEPSIZE WHICH MEETS STABILITY CRITERION OF THE ADVECTION TERM
 (FOR PURE FINITE-DIFFERENCE OPTION, MIXELM=0) 
 = 0.8136E-01(WHEN MIN. R.F.=1)  AT K=   3, I=   2, J=  32


 TOTAL NUMBER OF POINT SOURCES/SINKS PRESENT IN THE FLOW MODEL =   240

 MAXIMUM STEPSIZE WHICH MEETS STABILITY CRITERION OF THE SINK & SOURCE TERM
 = 0.1000E+31(WHEN MIN. R.F.=1)  AT K=   0, I=   0, J=   0

 MAXIMUM STEPSIZE WHICH MEETS STABILITY CRITERION OF THE DISPERSION TERM
 = 0.5604E-02(WHEN MIN. R.F.=1)  AT K=   3, I=   2, J=  32
     1 CALLS TO GCG PACKAGE FOR TRANSPORT TIME STEP   7 IN FLOW TIME STEP  83 STRESS PERIOD   2
    10 TOTAL ITERATIONS
 
 SOLVING FOR HEAD 
 FLOW MODEL IS TRANSIENT
 FLOW MODEL CONTAINS CONSTANT-HEAD CELLS


 MAXIMUM STEPSIZE DURING WHICH ANY PARTICLE CANNOT MOVE MORE THAN ONE CELL
 = 0.1187    (WHEN MIN. R.F.=1)  AT K=   3, I=   2, J=  33

 MAXIMUM STEPSIZE WHICH MEETS STABILITY CRITERION OF THE ADVECTION TERM
 (FOR PURE FINITE-DIFFERENCE OPTION, MIXELM=0) 
 = 0.8136E-01(WHEN MIN. R.F.=1)  AT K=   3, I=   2, J=  32


 TOTAL NUMBER OF POINT SOURCES/SINKS PRESENT IN THE FLOW MODEL =   240

 MAXIMUM STEPSIZE WHICH MEETS STABILITY CRITERION OF THE SINK & SOURCE TERM
 = 0.1000E+31(WHEN MIN. R.F.=1)  AT K=   0, I=   0, J=   0

 MAXIMUM STEPSIZE WHICH MEETS STABILITY CRITERION OF THE DISPERSION TERM
 = 0.5604E-02(WHEN MIN. R.F.=1)  AT K=   3, I=   2, J=  32
     1 CALLS TO GCG PACKAGE FOR TRANSPORT TIME STEP   8 IN FLOW TIME STEP  83 STRESS PERIOD   2
    11 TOTAL ITERATIONS
 
 SOLVING FOR HEAD 
 FLOW MODEL IS TRANSIENT
 FLOW MODEL CONTAINS CONSTANT-HEAD CELLS


 MAXIMUM STEPSIZE DURING WHICH ANY PARTICLE CANNOT MOVE MORE THAN ONE CELL
 = 0.1187    (WHEN MIN. R.F.=1)  AT K=   3, I=   2, J=  33

 MAXIMUM STEPSIZE WHICH MEETS STABILITY CRITERION OF THE ADVECTION TERM
 (FOR PURE FINITE-DIFFERENCE OPTION, MIXELM=0) 
 = 0.8136E-01(WHEN MIN. R.F.=1)  AT K=   3, I=   2, J=  32


 TOTAL NUMBER OF POINT SOURCES/SINKS PRESENT IN THE FLOW MODEL =   240

 MAXIMUM STEPSIZE WHICH MEETS STABILITY CRITERION OF THE SINK & SOURCE TERM
 = 0.1000E+31(WHEN MIN. R.F.=1)  AT K=   0, I=   0, J=   0

 MAXIMUM STEPSIZE WHICH MEETS STABILITY CRITERION OF THE DISPERSION TERM
 = 0.5604E-02(WHEN MIN. R.F.=1)  AT K=   3, I=   2, J=  32
     1 CALLS TO GCG PACKAGE FOR TRANSPORT TIME STEP   9 IN FLOW TIME STEP  83 STRESS PERIOD   2
    11 TOTAL ITERATIONS
 
 SOLVING FOR HEAD 
 FLOW MODEL IS TRANSIENT
 FLOW MODEL CONTAINS CONSTANT-HEAD CELLS


 MAXIMUM STEPSIZE DURING WHICH ANY PARTICLE CANNOT MOVE MORE THAN ONE CELL
 = 0.1187    (WHEN MIN. R.F.=1)  AT K=   3, I=   2, J=  33

 MAXIMUM STEPSIZE WHICH MEETS STABILITY CRITERION OF THE ADVECTION TERM
 (FOR PURE FINITE-DIFFERENCE OPTION, MIXELM=0) 
 = 0.8136E-01(WHEN MIN. R.F.=1)  AT K=   3, I=   2, J=  32


 TOTAL NUMBER OF POINT SOURCES/SINKS PRESENT IN THE FLOW MODEL =   240

 MAXIMUM STEPSIZE WHICH MEETS STABILITY CRITERION OF THE SINK & SOURCE TERM
 = 0.1000E+31(WHEN MIN. R.F.=1)  AT K=   0, I=   0, J=   0

 MAXIMUM STEPSIZE WHICH MEETS STABILITY CRITERION OF THE DISPERSION TERM
 = 0.5604E-02(WHEN MIN. R.F.=1)  AT K=   3, I=   2, J=  32
     1 CALLS TO GCG PACKAGE FOR TRANSPORT TIME STEP  10 IN FLOW TIME STEP  83 STRESS PERIOD   2
    10 TOTAL ITERATIONS



 >>>>>>>>>>>>>>>>>>>>>>>>>>>>>>>>>>>>>>>>>>>>>>>>>>>>>>>FOR COMPONENT NO. 01<<<<<<<<<<<<<<<<<<<<<<<<<<<<<<<<<<<<<<<<<<<<<<<<<<<<<<<


                                            -------------------------------------------
                                                      TRANSPORT STEP NO.   10
                                            -------------------------------------------

 TOTAL ELAPSED TIME SINCE BEGINNING OF SIMULATION =   83.89026    D   
 .....................................................................

                     CUMULATIVE MASS BUDGETS AT END OF TRANSPORT STEP   10, TIME STEP   83, STRESS PERIOD    2
                     ------------------------------------------------------------------------------------------

                                                             IN                           OUT
                                                      ----------------             ----------------
                               CONSTANT CONCENTRATION:    12315.81                   -7405.524    
                                        CONSTANT HEAD:    0.000000                    0.000000    
                               MASS STOR (FLOW MODEL):   0.1311336E-01              -0.3428629E-02
                                MASS STORAGE (SOLUTE):    10.22589                   -4920.523    
                            ---------------------------------------------------------------------------
                                              [TOTAL]:    12326.05     KG            -12326.05     KG  

                                                          NET (IN - OUT):  -0.3128896E-02
                                                   DISCREPANCY (PERCENT):  -0.2538442E-04
 
 SOLVING FOR HEAD 
 FLOW MODEL IS TRANSIENT
 FLOW MODEL CONTAINS CONSTANT-HEAD CELLS


 MAXIMUM STEPSIZE DURING WHICH ANY PARTICLE CANNOT MOVE MORE THAN ONE CELL
 = 0.1187    (WHEN MIN. R.F.=1)  AT K=   3, I=   2, J=  33

 MAXIMUM STEPSIZE WHICH MEETS STABILITY CRITERION OF THE ADVECTION TERM
 (FOR PURE FINITE-DIFFERENCE OPTION, MIXELM=0) 
 = 0.8136E-01(WHEN MIN. R.F.=1)  AT K=   3, I=   2, J=  32


 TOTAL NUMBER OF POINT SOURCES/SINKS PRESENT IN THE FLOW MODEL =   240

 MAXIMUM STEPSIZE WHICH MEETS STABILITY CRITERION OF THE SINK & SOURCE TERM
 = 0.1000E+31(WHEN MIN. R.F.=1)  AT K=   0, I=   0, J=   0

 MAXIMUM STEPSIZE WHICH MEETS STABILITY CRITERION OF THE DISPERSION TERM
 = 0.5604E-02(WHEN MIN. R.F.=1)  AT K=   3, I=   2, J=  32
     1 CALLS TO GCG PACKAGE FOR TRANSPORT TIME STEP  11 IN FLOW TIME STEP  83 STRESS PERIOD   2
    11 TOTAL ITERATIONS
 
 SOLVING FOR HEAD 
 FLOW MODEL IS TRANSIENT
 FLOW MODEL CONTAINS CONSTANT-HEAD CELLS


 MAXIMUM STEPSIZE DURING WHICH ANY PARTICLE CANNOT MOVE MORE THAN ONE CELL
 = 0.1187    (WHEN MIN. R.F.=1)  AT K=   3, I=   2, J=  33

 MAXIMUM STEPSIZE WHICH MEETS STABILITY CRITERION OF THE ADVECTION TERM
 (FOR PURE FINITE-DIFFERENCE OPTION, MIXELM=0) 
 = 0.8136E-01(WHEN MIN. R.F.=1)  AT K=   3, I=   2, J=  32


 TOTAL NUMBER OF POINT SOURCES/SINKS PRESENT IN THE FLOW MODEL =   240

 MAXIMUM STEPSIZE WHICH MEETS STABILITY CRITERION OF THE SINK & SOURCE TERM
 = 0.1000E+31(WHEN MIN. R.F.=1)  AT K=   0, I=   0, J=   0

 MAXIMUM STEPSIZE WHICH MEETS STABILITY CRITERION OF THE DISPERSION TERM
 = 0.5604E-02(WHEN MIN. R.F.=1)  AT K=   3, I=   2, J=  32
     1 CALLS TO GCG PACKAGE FOR TRANSPORT TIME STEP  12 IN FLOW TIME STEP  83 STRESS PERIOD   2
     5 TOTAL ITERATIONS
  MAXIMUM CONCENTRATION CHANGES FOR EACH ITERATION:
  MAX. CHANGE LAYER,ROW,COL MAX. CHANGE LAYER,ROW,COL MAX. CHANGE LAYER,ROW,COL MAX. CHANGE LAYER,ROW,COL MAX. CHANGE LAYER,ROW,COL
 ------------------------------------------------------------------------------------------------------------------------------------
   0.1246E-03 ( 16,  2, 53)  0.5326E-05 (  6,  2, 61)  0.7681E-06 (  5,  2, 57)  0.1428E-06 (  7,  2, 60)  0.5410E-07 (  4,  2, 33)


                                          ================================================
                                                         FROM TIME =   84.000     TO    85.000    

 
 SOLVING FOR HEAD 
 FLOW MODEL IS TRANSIENT
 FLOW MODEL CONTAINS CONSTANT-HEAD CELLS


 MAXIMUM STEPSIZE DURING WHICH ANY PARTICLE CANNOT MOVE MORE THAN ONE CELL
 = 0.1187    (WHEN MIN. R.F.=1)  AT K=   3, I=   2, J=  33

 MAXIMUM STEPSIZE WHICH MEETS STABILITY CRITERION OF THE ADVECTION TERM
 (FOR PURE FINITE-DIFFERENCE OPTION, MIXELM=0) 
 = 0.8136E-01(WHEN MIN. R.F.=1)  AT K=   3, I=   2, J=  32


 TOTAL NUMBER OF POINT SOURCES/SINKS PRESENT IN THE FLOW MODEL =   240

 MAXIMUM STEPSIZE WHICH MEETS STABILITY CRITERION OF THE SINK & SOURCE TERM
 = 0.1000E+31(WHEN MIN. R.F.=1)  AT K=   0, I=   0, J=   0

 MAXIMUM STEPSIZE WHICH MEETS STABILITY CRITERION OF THE DISPERSION TERM
 = 0.5604E-02(WHEN MIN. R.F.=1)  AT K=   3, I=   2, J=  32


     1 CALLS TO GCG PACKAGE FOR TRANSPORT TIME STEP   1 IN FLOW TIME STEP  84 STRESS PERIOD   2
    10 TOTAL ITERATIONS

 NO OUTPUT CONTROL FOR STRESS PERIOD    2   TIME STEP  84
 
 SOLVING FOR HEAD 
 FLOW MODEL IS TRANSIENT
 FLOW MODEL CONTAINS CONSTANT-HEAD CELLS


 MAXIMUM STEPSIZE DURING WHICH ANY PARTICLE CANNOT MOVE MORE THAN ONE CELL
 = 0.1187    (WHEN MIN. R.F.=1)  AT K=   3, I=   2, J=  33

 MAXIMUM STEPSIZE WHICH MEETS STABILITY CRITERION OF THE ADVECTION TERM
 (FOR PURE FINITE-DIFFERENCE OPTION, MIXELM=0) 
 = 0.8136E-01(WHEN MIN. R.F.=1)  AT K=   3, I=   2, J=  32


 TOTAL NUMBER OF POINT SOURCES/SINKS PRESENT IN THE FLOW MODEL =   240

 MAXIMUM STEPSIZE WHICH MEETS STABILITY CRITERION OF THE SINK & SOURCE TERM
 = 0.1000E+31(WHEN MIN. R.F.=1)  AT K=   0, I=   0, J=   0

 MAXIMUM STEPSIZE WHICH MEETS STABILITY CRITERION OF THE DISPERSION TERM
 = 0.5604E-02(WHEN MIN. R.F.=1)  AT K=   3, I=   2, J=  32
     1 CALLS TO GCG PACKAGE FOR TRANSPORT TIME STEP   2 IN FLOW TIME STEP  84 STRESS PERIOD   2
    11 TOTAL ITERATIONS
 
 SOLVING FOR HEAD 
 FLOW MODEL IS TRANSIENT
 FLOW MODEL CONTAINS CONSTANT-HEAD CELLS


 MAXIMUM STEPSIZE DURING WHICH ANY PARTICLE CANNOT MOVE MORE THAN ONE CELL
 = 0.1187    (WHEN MIN. R.F.=1)  AT K=   3, I=   2, J=  33

 MAXIMUM STEPSIZE WHICH MEETS STABILITY CRITERION OF THE ADVECTION TERM
 (FOR PURE FINITE-DIFFERENCE OPTION, MIXELM=0) 
 = 0.8136E-01(WHEN MIN. R.F.=1)  AT K=   3, I=   2, J=  32


 TOTAL NUMBER OF POINT SOURCES/SINKS PRESENT IN THE FLOW MODEL =   240

 MAXIMUM STEPSIZE WHICH MEETS STABILITY CRITERION OF THE SINK & SOURCE TERM
 = 0.1000E+31(WHEN MIN. R.F.=1)  AT K=   0, I=   0, J=   0

 MAXIMUM STEPSIZE WHICH MEETS STABILITY CRITERION OF THE DISPERSION TERM
 = 0.5604E-02(WHEN MIN. R.F.=1)  AT K=   3, I=   2, J=  32
     1 CALLS TO GCG PACKAGE FOR TRANSPORT TIME STEP   3 IN FLOW TIME STEP  84 STRESS PERIOD   2
    11 TOTAL ITERATIONS
 
 SOLVING FOR HEAD 
 FLOW MODEL IS TRANSIENT
 FLOW MODEL CONTAINS CONSTANT-HEAD CELLS


 MAXIMUM STEPSIZE DURING WHICH ANY PARTICLE CANNOT MOVE MORE THAN ONE CELL
 = 0.1187    (WHEN MIN. R.F.=1)  AT K=   3, I=   2, J=  33

 MAXIMUM STEPSIZE WHICH MEETS STABILITY CRITERION OF THE ADVECTION TERM
 (FOR PURE FINITE-DIFFERENCE OPTION, MIXELM=0) 
 = 0.8135E-01(WHEN MIN. R.F.=1)  AT K=   3, I=   2, J=  32


 TOTAL NUMBER OF POINT SOURCES/SINKS PRESENT IN THE FLOW MODEL =   240

 MAXIMUM STEPSIZE WHICH MEETS STABILITY CRITERION OF THE SINK & SOURCE TERM
 = 0.1000E+31(WHEN MIN. R.F.=1)  AT K=   0, I=   0, J=   0

 MAXIMUM STEPSIZE WHICH MEETS STABILITY CRITERION OF THE DISPERSION TERM
 = 0.5604E-02(WHEN MIN. R.F.=1)  AT K=   3, I=   2, J=  32
     1 CALLS TO GCG PACKAGE FOR TRANSPORT TIME STEP   4 IN FLOW TIME STEP  84 STRESS PERIOD   2
    10 TOTAL ITERATIONS
 
 SOLVING FOR HEAD 
 FLOW MODEL IS TRANSIENT
 FLOW MODEL CONTAINS CONSTANT-HEAD CELLS


 MAXIMUM STEPSIZE DURING WHICH ANY PARTICLE CANNOT MOVE MORE THAN ONE CELL
 = 0.1187    (WHEN MIN. R.F.=1)  AT K=   3, I=   2, J=  33

 MAXIMUM STEPSIZE WHICH MEETS STABILITY CRITERION OF THE ADVECTION TERM
 (FOR PURE FINITE-DIFFERENCE OPTION, MIXELM=0) 
 = 0.8135E-01(WHEN MIN. R.F.=1)  AT K=   3, I=   2, J=  32


 TOTAL NUMBER OF POINT SOURCES/SINKS PRESENT IN THE FLOW MODEL =   240

 MAXIMUM STEPSIZE WHICH MEETS STABILITY CRITERION OF THE SINK & SOURCE TERM
 = 0.1000E+31(WHEN MIN. R.F.=1)  AT K=   0, I=   0, J=   0

 MAXIMUM STEPSIZE WHICH MEETS STABILITY CRITERION OF THE DISPERSION TERM
 = 0.5604E-02(WHEN MIN. R.F.=1)  AT K=   3, I=   2, J=  32
     1 CALLS TO GCG PACKAGE FOR TRANSPORT TIME STEP   5 IN FLOW TIME STEP  84 STRESS PERIOD   2
    11 TOTAL ITERATIONS
 
 SOLVING FOR HEAD 
 FLOW MODEL IS TRANSIENT
 FLOW MODEL CONTAINS CONSTANT-HEAD CELLS


 MAXIMUM STEPSIZE DURING WHICH ANY PARTICLE CANNOT MOVE MORE THAN ONE CELL
 = 0.1187    (WHEN MIN. R.F.=1)  AT K=   3, I=   2, J=  33

 MAXIMUM STEPSIZE WHICH MEETS STABILITY CRITERION OF THE ADVECTION TERM
 (FOR PURE FINITE-DIFFERENCE OPTION, MIXELM=0) 
 = 0.8135E-01(WHEN MIN. R.F.=1)  AT K=   3, I=   2, J=  32


 TOTAL NUMBER OF POINT SOURCES/SINKS PRESENT IN THE FLOW MODEL =   240

 MAXIMUM STEPSIZE WHICH MEETS STABILITY CRITERION OF THE SINK & SOURCE TERM
 = 0.1000E+31(WHEN MIN. R.F.=1)  AT K=   0, I=   0, J=   0

 MAXIMUM STEPSIZE WHICH MEETS STABILITY CRITERION OF THE DISPERSION TERM
 = 0.5604E-02(WHEN MIN. R.F.=1)  AT K=   3, I=   2, J=  32
     1 CALLS TO GCG PACKAGE FOR TRANSPORT TIME STEP   6 IN FLOW TIME STEP  84 STRESS PERIOD   2
    10 TOTAL ITERATIONS
 
 SOLVING FOR HEAD 
 FLOW MODEL IS TRANSIENT
 FLOW MODEL CONTAINS CONSTANT-HEAD CELLS


 MAXIMUM STEPSIZE DURING WHICH ANY PARTICLE CANNOT MOVE MORE THAN ONE CELL
 = 0.1187    (WHEN MIN. R.F.=1)  AT K=   3, I=   2, J=  33

 MAXIMUM STEPSIZE WHICH MEETS STABILITY CRITERION OF THE ADVECTION TERM
 (FOR PURE FINITE-DIFFERENCE OPTION, MIXELM=0) 
 = 0.8135E-01(WHEN MIN. R.F.=1)  AT K=   3, I=   2, J=  32


 TOTAL NUMBER OF POINT SOURCES/SINKS PRESENT IN THE FLOW MODEL =   240

 MAXIMUM STEPSIZE WHICH MEETS STABILITY CRITERION OF THE SINK & SOURCE TERM
 = 0.1000E+31(WHEN MIN. R.F.=1)  AT K=   0, I=   0, J=   0

 MAXIMUM STEPSIZE WHICH MEETS STABILITY CRITERION OF THE DISPERSION TERM
 = 0.5604E-02(WHEN MIN. R.F.=1)  AT K=   3, I=   2, J=  32
     1 CALLS TO GCG PACKAGE FOR TRANSPORT TIME STEP   7 IN FLOW TIME STEP  84 STRESS PERIOD   2
    11 TOTAL ITERATIONS
 
 SOLVING FOR HEAD 
 FLOW MODEL IS TRANSIENT
 FLOW MODEL CONTAINS CONSTANT-HEAD CELLS


 MAXIMUM STEPSIZE DURING WHICH ANY PARTICLE CANNOT MOVE MORE THAN ONE CELL
 = 0.1187    (WHEN MIN. R.F.=1)  AT K=   3, I=   2, J=  33

 MAXIMUM STEPSIZE WHICH MEETS STABILITY CRITERION OF THE ADVECTION TERM
 (FOR PURE FINITE-DIFFERENCE OPTION, MIXELM=0) 
 = 0.8135E-01(WHEN MIN. R.F.=1)  AT K=   3, I=   2, J=  32


 TOTAL NUMBER OF POINT SOURCES/SINKS PRESENT IN THE FLOW MODEL =   240

 MAXIMUM STEPSIZE WHICH MEETS STABILITY CRITERION OF THE SINK & SOURCE TERM
 = 0.1000E+31(WHEN MIN. R.F.=1)  AT K=   0, I=   0, J=   0

 MAXIMUM STEPSIZE WHICH MEETS STABILITY CRITERION OF THE DISPERSION TERM
 = 0.5604E-02(WHEN MIN. R.F.=1)  AT K=   3, I=   2, J=  32
     1 CALLS TO GCG PACKAGE FOR TRANSPORT TIME STEP   8 IN FLOW TIME STEP  84 STRESS PERIOD   2
    10 TOTAL ITERATIONS
 
 SOLVING FOR HEAD 
 FLOW MODEL IS TRANSIENT
 FLOW MODEL CONTAINS CONSTANT-HEAD CELLS


 MAXIMUM STEPSIZE DURING WHICH ANY PARTICLE CANNOT MOVE MORE THAN ONE CELL
 = 0.1187    (WHEN MIN. R.F.=1)  AT K=   3, I=   2, J=  33

 MAXIMUM STEPSIZE WHICH MEETS STABILITY CRITERION OF THE ADVECTION TERM
 (FOR PURE FINITE-DIFFERENCE OPTION, MIXELM=0) 
 = 0.8135E-01(WHEN MIN. R.F.=1)  AT K=   3, I=   2, J=  32


 TOTAL NUMBER OF POINT SOURCES/SINKS PRESENT IN THE FLOW MODEL =   240

 MAXIMUM STEPSIZE WHICH MEETS STABILITY CRITERION OF THE SINK & SOURCE TERM
 = 0.1000E+31(WHEN MIN. R.F.=1)  AT K=   0, I=   0, J=   0

 MAXIMUM STEPSIZE WHICH MEETS STABILITY CRITERION OF THE DISPERSION TERM
 = 0.5604E-02(WHEN MIN. R.F.=1)  AT K=   3, I=   2, J=  32
     1 CALLS TO GCG PACKAGE FOR TRANSPORT TIME STEP   9 IN FLOW TIME STEP  84 STRESS PERIOD   2
    11 TOTAL ITERATIONS
 
 SOLVING FOR HEAD 
 FLOW MODEL IS TRANSIENT
 FLOW MODEL CONTAINS CONSTANT-HEAD CELLS


 MAXIMUM STEPSIZE DURING WHICH ANY PARTICLE CANNOT MOVE MORE THAN ONE CELL
 = 0.1187    (WHEN MIN. R.F.=1)  AT K=   3, I=   2, J=  33

 MAXIMUM STEPSIZE WHICH MEETS STABILITY CRITERION OF THE ADVECTION TERM
 (FOR PURE FINITE-DIFFERENCE OPTION, MIXELM=0) 
 = 0.8135E-01(WHEN MIN. R.F.=1)  AT K=   3, I=   2, J=  32


 TOTAL NUMBER OF POINT SOURCES/SINKS PRESENT IN THE FLOW MODEL =   240

 MAXIMUM STEPSIZE WHICH MEETS STABILITY CRITERION OF THE SINK & SOURCE TERM
 = 0.1000E+31(WHEN MIN. R.F.=1)  AT K=   0, I=   0, J=   0

 MAXIMUM STEPSIZE WHICH MEETS STABILITY CRITERION OF THE DISPERSION TERM
 = 0.5604E-02(WHEN MIN. R.F.=1)  AT K=   3, I=   2, J=  32
     1 CALLS TO GCG PACKAGE FOR TRANSPORT TIME STEP  10 IN FLOW TIME STEP  84 STRESS PERIOD   2
    11 TOTAL ITERATIONS



 >>>>>>>>>>>>>>>>>>>>>>>>>>>>>>>>>>>>>>>>>>>>>>>>>>>>>>>FOR COMPONENT NO. 01<<<<<<<<<<<<<<<<<<<<<<<<<<<<<<<<<<<<<<<<<<<<<<<<<<<<<<<


                                            -------------------------------------------
                                                      TRANSPORT STEP NO.   10
                                            -------------------------------------------

 TOTAL ELAPSED TIME SINCE BEGINNING OF SIMULATION =   84.89025    D   
 .....................................................................

                     CUMULATIVE MASS BUDGETS AT END OF TRANSPORT STEP   10, TIME STEP   84, STRESS PERIOD    2
                     ------------------------------------------------------------------------------------------

                                                             IN                           OUT
                                                      ----------------             ----------------
                               CONSTANT CONCENTRATION:    12420.37                   -7498.513    
                                        CONSTANT HEAD:    0.000000                    0.000000    
                               MASS STOR (FLOW MODEL):   0.1312694E-01              -0.3430648E-02
                                MASS STORAGE (SOLUTE):    10.38779                   -4932.254    
                            ---------------------------------------------------------------------------
                                              [TOTAL]:    12430.77     KG            -12430.77     KG  

                                                          NET (IN - OUT):  -0.3088149E-02
                                                   DISCREPANCY (PERCENT):  -0.2484278E-04
 
 SOLVING FOR HEAD 
 FLOW MODEL IS TRANSIENT
 FLOW MODEL CONTAINS CONSTANT-HEAD CELLS


 MAXIMUM STEPSIZE DURING WHICH ANY PARTICLE CANNOT MOVE MORE THAN ONE CELL
 = 0.1187    (WHEN MIN. R.F.=1)  AT K=   3, I=   2, J=  33

 MAXIMUM STEPSIZE WHICH MEETS STABILITY CRITERION OF THE ADVECTION TERM
 (FOR PURE FINITE-DIFFERENCE OPTION, MIXELM=0) 
 = 0.8135E-01(WHEN MIN. R.F.=1)  AT K=   3, I=   2, J=  32


 TOTAL NUMBER OF POINT SOURCES/SINKS PRESENT IN THE FLOW MODEL =   240

 MAXIMUM STEPSIZE WHICH MEETS STABILITY CRITERION OF THE SINK & SOURCE TERM
 = 0.1000E+31(WHEN MIN. R.F.=1)  AT K=   0, I=   0, J=   0

 MAXIMUM STEPSIZE WHICH MEETS STABILITY CRITERION OF THE DISPERSION TERM
 = 0.5604E-02(WHEN MIN. R.F.=1)  AT K=   3, I=   2, J=  32
     1 CALLS TO GCG PACKAGE FOR TRANSPORT TIME STEP  11 IN FLOW TIME STEP  84 STRESS PERIOD   2
    10 TOTAL ITERATIONS
 
 SOLVING FOR HEAD 
 FLOW MODEL IS TRANSIENT
 FLOW MODEL CONTAINS CONSTANT-HEAD CELLS


 MAXIMUM STEPSIZE DURING WHICH ANY PARTICLE CANNOT MOVE MORE THAN ONE CELL
 = 0.1187    (WHEN MIN. R.F.=1)  AT K=   3, I=   2, J=  33

 MAXIMUM STEPSIZE WHICH MEETS STABILITY CRITERION OF THE ADVECTION TERM
 (FOR PURE FINITE-DIFFERENCE OPTION, MIXELM=0) 
 = 0.8135E-01(WHEN MIN. R.F.=1)  AT K=   3, I=   2, J=  32


 TOTAL NUMBER OF POINT SOURCES/SINKS PRESENT IN THE FLOW MODEL =   240

 MAXIMUM STEPSIZE WHICH MEETS STABILITY CRITERION OF THE SINK & SOURCE TERM
 = 0.1000E+31(WHEN MIN. R.F.=1)  AT K=   0, I=   0, J=   0

 MAXIMUM STEPSIZE WHICH MEETS STABILITY CRITERION OF THE DISPERSION TERM
 = 0.5604E-02(WHEN MIN. R.F.=1)  AT K=   3, I=   2, J=  32
     1 CALLS TO GCG PACKAGE FOR TRANSPORT TIME STEP  12 IN FLOW TIME STEP  84 STRESS PERIOD   2
     5 TOTAL ITERATIONS
  MAXIMUM CONCENTRATION CHANGES FOR EACH ITERATION:
  MAX. CHANGE LAYER,ROW,COL MAX. CHANGE LAYER,ROW,COL MAX. CHANGE LAYER,ROW,COL MAX. CHANGE LAYER,ROW,COL MAX. CHANGE LAYER,ROW,COL
 ------------------------------------------------------------------------------------------------------------------------------------
   0.1249E-03 ( 16,  2, 53)  0.5187E-05 (  6,  2, 61)  0.7469E-06 (  5,  2, 57)  0.1339E-06 (  7,  2, 60)  0.4826E-07 (  4,  2, 32)


                                          ================================================
                                                         FROM TIME =   85.000     TO    86.000    

 
 SOLVING FOR HEAD 
 FLOW MODEL IS TRANSIENT
 FLOW MODEL CONTAINS CONSTANT-HEAD CELLS


 MAXIMUM STEPSIZE DURING WHICH ANY PARTICLE CANNOT MOVE MORE THAN ONE CELL
 = 0.1187    (WHEN MIN. R.F.=1)  AT K=   3, I=   2, J=  33

 MAXIMUM STEPSIZE WHICH MEETS STABILITY CRITERION OF THE ADVECTION TERM
 (FOR PURE FINITE-DIFFERENCE OPTION, MIXELM=0) 
 = 0.8135E-01(WHEN MIN. R.F.=1)  AT K=   3, I=   2, J=  32


 TOTAL NUMBER OF POINT SOURCES/SINKS PRESENT IN THE FLOW MODEL =   240

 MAXIMUM STEPSIZE WHICH MEETS STABILITY CRITERION OF THE SINK & SOURCE TERM
 = 0.1000E+31(WHEN MIN. R.F.=1)  AT K=   0, I=   0, J=   0

 MAXIMUM STEPSIZE WHICH MEETS STABILITY CRITERION OF THE DISPERSION TERM
 = 0.5604E-02(WHEN MIN. R.F.=1)  AT K=   3, I=   2, J=  32


     1 CALLS TO GCG PACKAGE FOR TRANSPORT TIME STEP   1 IN FLOW TIME STEP  85 STRESS PERIOD   2
    10 TOTAL ITERATIONS

 NO OUTPUT CONTROL FOR STRESS PERIOD    2   TIME STEP  85
 
 SOLVING FOR HEAD 
 FLOW MODEL IS TRANSIENT
 FLOW MODEL CONTAINS CONSTANT-HEAD CELLS


 MAXIMUM STEPSIZE DURING WHICH ANY PARTICLE CANNOT MOVE MORE THAN ONE CELL
 = 0.1187    (WHEN MIN. R.F.=1)  AT K=   3, I=   2, J=  33

 MAXIMUM STEPSIZE WHICH MEETS STABILITY CRITERION OF THE ADVECTION TERM
 (FOR PURE FINITE-DIFFERENCE OPTION, MIXELM=0) 
 = 0.8135E-01(WHEN MIN. R.F.=1)  AT K=   3, I=   2, J=  32


 TOTAL NUMBER OF POINT SOURCES/SINKS PRESENT IN THE FLOW MODEL =   240

 MAXIMUM STEPSIZE WHICH MEETS STABILITY CRITERION OF THE SINK & SOURCE TERM
 = 0.1000E+31(WHEN MIN. R.F.=1)  AT K=   0, I=   0, J=   0

 MAXIMUM STEPSIZE WHICH MEETS STABILITY CRITERION OF THE DISPERSION TERM
 = 0.5604E-02(WHEN MIN. R.F.=1)  AT K=   3, I=   2, J=  32
     1 CALLS TO GCG PACKAGE FOR TRANSPORT TIME STEP   2 IN FLOW TIME STEP  85 STRESS PERIOD   2
    11 TOTAL ITERATIONS
 
 SOLVING FOR HEAD 
 FLOW MODEL IS TRANSIENT
 FLOW MODEL CONTAINS CONSTANT-HEAD CELLS


 MAXIMUM STEPSIZE DURING WHICH ANY PARTICLE CANNOT MOVE MORE THAN ONE CELL
 = 0.1187    (WHEN MIN. R.F.=1)  AT K=   3, I=   2, J=  33

 MAXIMUM STEPSIZE WHICH MEETS STABILITY CRITERION OF THE ADVECTION TERM
 (FOR PURE FINITE-DIFFERENCE OPTION, MIXELM=0) 
 = 0.8135E-01(WHEN MIN. R.F.=1)  AT K=   3, I=   2, J=  32


 TOTAL NUMBER OF POINT SOURCES/SINKS PRESENT IN THE FLOW MODEL =   240

 MAXIMUM STEPSIZE WHICH MEETS STABILITY CRITERION OF THE SINK & SOURCE TERM
 = 0.1000E+31(WHEN MIN. R.F.=1)  AT K=   0, I=   0, J=   0

 MAXIMUM STEPSIZE WHICH MEETS STABILITY CRITERION OF THE DISPERSION TERM
 = 0.5604E-02(WHEN MIN. R.F.=1)  AT K=   3, I=   2, J=  32
     1 CALLS TO GCG PACKAGE FOR TRANSPORT TIME STEP   3 IN FLOW TIME STEP  85 STRESS PERIOD   2
    10 TOTAL ITERATIONS
 
 SOLVING FOR HEAD 
 FLOW MODEL IS TRANSIENT
 FLOW MODEL CONTAINS CONSTANT-HEAD CELLS


 MAXIMUM STEPSIZE DURING WHICH ANY PARTICLE CANNOT MOVE MORE THAN ONE CELL
 = 0.1187    (WHEN MIN. R.F.=1)  AT K=   3, I=   2, J=  33

 MAXIMUM STEPSIZE WHICH MEETS STABILITY CRITERION OF THE ADVECTION TERM
 (FOR PURE FINITE-DIFFERENCE OPTION, MIXELM=0) 
 = 0.8135E-01(WHEN MIN. R.F.=1)  AT K=   3, I=   2, J=  32


 TOTAL NUMBER OF POINT SOURCES/SINKS PRESENT IN THE FLOW MODEL =   240

 MAXIMUM STEPSIZE WHICH MEETS STABILITY CRITERION OF THE SINK & SOURCE TERM
 = 0.1000E+31(WHEN MIN. R.F.=1)  AT K=   0, I=   0, J=   0

 MAXIMUM STEPSIZE WHICH MEETS STABILITY CRITERION OF THE DISPERSION TERM
 = 0.5604E-02(WHEN MIN. R.F.=1)  AT K=   3, I=   2, J=  32
     1 CALLS TO GCG PACKAGE FOR TRANSPORT TIME STEP   4 IN FLOW TIME STEP  85 STRESS PERIOD   2
    11 TOTAL ITERATIONS
 
 SOLVING FOR HEAD 
 FLOW MODEL IS TRANSIENT
 FLOW MODEL CONTAINS CONSTANT-HEAD CELLS


 MAXIMUM STEPSIZE DURING WHICH ANY PARTICLE CANNOT MOVE MORE THAN ONE CELL
 = 0.1187    (WHEN MIN. R.F.=1)  AT K=   3, I=   2, J=  33

 MAXIMUM STEPSIZE WHICH MEETS STABILITY CRITERION OF THE ADVECTION TERM
 (FOR PURE FINITE-DIFFERENCE OPTION, MIXELM=0) 
 = 0.8135E-01(WHEN MIN. R.F.=1)  AT K=   3, I=   2, J=  32


 TOTAL NUMBER OF POINT SOURCES/SINKS PRESENT IN THE FLOW MODEL =   240

 MAXIMUM STEPSIZE WHICH MEETS STABILITY CRITERION OF THE SINK & SOURCE TERM
 = 0.1000E+31(WHEN MIN. R.F.=1)  AT K=   0, I=   0, J=   0

 MAXIMUM STEPSIZE WHICH MEETS STABILITY CRITERION OF THE DISPERSION TERM
 = 0.5604E-02(WHEN MIN. R.F.=1)  AT K=   3, I=   2, J=  32
     1 CALLS TO GCG PACKAGE FOR TRANSPORT TIME STEP   5 IN FLOW TIME STEP  85 STRESS PERIOD   2
    10 TOTAL ITERATIONS
 
 SOLVING FOR HEAD 
 FLOW MODEL IS TRANSIENT
 FLOW MODEL CONTAINS CONSTANT-HEAD CELLS


 MAXIMUM STEPSIZE DURING WHICH ANY PARTICLE CANNOT MOVE MORE THAN ONE CELL
 = 0.1187    (WHEN MIN. R.F.=1)  AT K=   3, I=   2, J=  33

 MAXIMUM STEPSIZE WHICH MEETS STABILITY CRITERION OF THE ADVECTION TERM
 (FOR PURE FINITE-DIFFERENCE OPTION, MIXELM=0) 
 = 0.8135E-01(WHEN MIN. R.F.=1)  AT K=   3, I=   2, J=  32


 TOTAL NUMBER OF POINT SOURCES/SINKS PRESENT IN THE FLOW MODEL =   240

 MAXIMUM STEPSIZE WHICH MEETS STABILITY CRITERION OF THE SINK & SOURCE TERM
 = 0.1000E+31(WHEN MIN. R.F.=1)  AT K=   0, I=   0, J=   0

 MAXIMUM STEPSIZE WHICH MEETS STABILITY CRITERION OF THE DISPERSION TERM
 = 0.5604E-02(WHEN MIN. R.F.=1)  AT K=   3, I=   2, J=  32
     1 CALLS TO GCG PACKAGE FOR TRANSPORT TIME STEP   6 IN FLOW TIME STEP  85 STRESS PERIOD   2
    11 TOTAL ITERATIONS
 
 SOLVING FOR HEAD 
 FLOW MODEL IS TRANSIENT
 FLOW MODEL CONTAINS CONSTANT-HEAD CELLS


 MAXIMUM STEPSIZE DURING WHICH ANY PARTICLE CANNOT MOVE MORE THAN ONE CELL
 = 0.1187    (WHEN MIN. R.F.=1)  AT K=   3, I=   2, J=  33

 MAXIMUM STEPSIZE WHICH MEETS STABILITY CRITERION OF THE ADVECTION TERM
 (FOR PURE FINITE-DIFFERENCE OPTION, MIXELM=0) 
 = 0.8135E-01(WHEN MIN. R.F.=1)  AT K=   3, I=   2, J=  32


 TOTAL NUMBER OF POINT SOURCES/SINKS PRESENT IN THE FLOW MODEL =   240

 MAXIMUM STEPSIZE WHICH MEETS STABILITY CRITERION OF THE SINK & SOURCE TERM
 = 0.1000E+31(WHEN MIN. R.F.=1)  AT K=   0, I=   0, J=   0

 MAXIMUM STEPSIZE WHICH MEETS STABILITY CRITERION OF THE DISPERSION TERM
 = 0.5604E-02(WHEN MIN. R.F.=1)  AT K=   3, I=   2, J=  32
     1 CALLS TO GCG PACKAGE FOR TRANSPORT TIME STEP   7 IN FLOW TIME STEP  85 STRESS PERIOD   2
    10 TOTAL ITERATIONS
 
 SOLVING FOR HEAD 
 FLOW MODEL IS TRANSIENT
 FLOW MODEL CONTAINS CONSTANT-HEAD CELLS


 MAXIMUM STEPSIZE DURING WHICH ANY PARTICLE CANNOT MOVE MORE THAN ONE CELL
 = 0.1187    (WHEN MIN. R.F.=1)  AT K=   3, I=   2, J=  33

 MAXIMUM STEPSIZE WHICH MEETS STABILITY CRITERION OF THE ADVECTION TERM
 (FOR PURE FINITE-DIFFERENCE OPTION, MIXELM=0) 
 = 0.8135E-01(WHEN MIN. R.F.=1)  AT K=   3, I=   2, J=  32


 TOTAL NUMBER OF POINT SOURCES/SINKS PRESENT IN THE FLOW MODEL =   240

 MAXIMUM STEPSIZE WHICH MEETS STABILITY CRITERION OF THE SINK & SOURCE TERM
 = 0.1000E+31(WHEN MIN. R.F.=1)  AT K=   0, I=   0, J=   0

 MAXIMUM STEPSIZE WHICH MEETS STABILITY CRITERION OF THE DISPERSION TERM
 = 0.5604E-02(WHEN MIN. R.F.=1)  AT K=   3, I=   2, J=  32
     1 CALLS TO GCG PACKAGE FOR TRANSPORT TIME STEP   8 IN FLOW TIME STEP  85 STRESS PERIOD   2
    11 TOTAL ITERATIONS
 
 SOLVING FOR HEAD 
 FLOW MODEL IS TRANSIENT
 FLOW MODEL CONTAINS CONSTANT-HEAD CELLS


 MAXIMUM STEPSIZE DURING WHICH ANY PARTICLE CANNOT MOVE MORE THAN ONE CELL
 = 0.1187    (WHEN MIN. R.F.=1)  AT K=   3, I=   2, J=  33

 MAXIMUM STEPSIZE WHICH MEETS STABILITY CRITERION OF THE ADVECTION TERM
 (FOR PURE FINITE-DIFFERENCE OPTION, MIXELM=0) 
 = 0.8135E-01(WHEN MIN. R.F.=1)  AT K=   3, I=   2, J=  32


 TOTAL NUMBER OF POINT SOURCES/SINKS PRESENT IN THE FLOW MODEL =   240

 MAXIMUM STEPSIZE WHICH MEETS STABILITY CRITERION OF THE SINK & SOURCE TERM
 = 0.1000E+31(WHEN MIN. R.F.=1)  AT K=   0, I=   0, J=   0

 MAXIMUM STEPSIZE WHICH MEETS STABILITY CRITERION OF THE DISPERSION TERM
 = 0.5604E-02(WHEN MIN. R.F.=1)  AT K=   3, I=   2, J=  32
     1 CALLS TO GCG PACKAGE FOR TRANSPORT TIME STEP   9 IN FLOW TIME STEP  85 STRESS PERIOD   2
    10 TOTAL ITERATIONS
 
 SOLVING FOR HEAD 
 FLOW MODEL IS TRANSIENT
 FLOW MODEL CONTAINS CONSTANT-HEAD CELLS


 MAXIMUM STEPSIZE DURING WHICH ANY PARTICLE CANNOT MOVE MORE THAN ONE CELL
 = 0.1187    (WHEN MIN. R.F.=1)  AT K=   3, I=   2, J=  33

 MAXIMUM STEPSIZE WHICH MEETS STABILITY CRITERION OF THE ADVECTION TERM
 (FOR PURE FINITE-DIFFERENCE OPTION, MIXELM=0) 
 = 0.8135E-01(WHEN MIN. R.F.=1)  AT K=   3, I=   2, J=  32


 TOTAL NUMBER OF POINT SOURCES/SINKS PRESENT IN THE FLOW MODEL =   240

 MAXIMUM STEPSIZE WHICH MEETS STABILITY CRITERION OF THE SINK & SOURCE TERM
 = 0.1000E+31(WHEN MIN. R.F.=1)  AT K=   0, I=   0, J=   0

 MAXIMUM STEPSIZE WHICH MEETS STABILITY CRITERION OF THE DISPERSION TERM
 = 0.5604E-02(WHEN MIN. R.F.=1)  AT K=   3, I=   2, J=  32
     1 CALLS TO GCG PACKAGE FOR TRANSPORT TIME STEP  10 IN FLOW TIME STEP  85 STRESS PERIOD   2
    11 TOTAL ITERATIONS



 >>>>>>>>>>>>>>>>>>>>>>>>>>>>>>>>>>>>>>>>>>>>>>>>>>>>>>>FOR COMPONENT NO. 01<<<<<<<<<<<<<<<<<<<<<<<<<<<<<<<<<<<<<<<<<<<<<<<<<<<<<<<


                                            -------------------------------------------
                                                      TRANSPORT STEP NO.   10
                                            -------------------------------------------

 TOTAL ELAPSED TIME SINCE BEGINNING OF SIMULATION =   85.89023    D   
 .....................................................................

                     CUMULATIVE MASS BUDGETS AT END OF TRANSPORT STEP   10, TIME STEP   85, STRESS PERIOD    2
                     ------------------------------------------------------------------------------------------

                                                             IN                           OUT
                                                      ----------------             ----------------
                               CONSTANT CONCENTRATION:    12524.80                   -7591.513    
                                        CONSTANT HEAD:    0.000000                    0.000000    
                               MASS STOR (FLOW MODEL):   0.1314042E-01              -0.3432600E-02
                                MASS STORAGE (SOLUTE):    10.54598                   -4943.844    
                            ---------------------------------------------------------------------------
                                              [TOTAL]:    12535.36     KG            -12535.36     KG  

                                                          NET (IN - OUT):  -0.3030069E-02
                                                   DISCREPANCY (PERCENT):  -0.2417218E-04
 
 SOLVING FOR HEAD 
 FLOW MODEL IS TRANSIENT
 FLOW MODEL CONTAINS CONSTANT-HEAD CELLS


 MAXIMUM STEPSIZE DURING WHICH ANY PARTICLE CANNOT MOVE MORE THAN ONE CELL
 = 0.1187    (WHEN MIN. R.F.=1)  AT K=   3, I=   2, J=  33

 MAXIMUM STEPSIZE WHICH MEETS STABILITY CRITERION OF THE ADVECTION TERM
 (FOR PURE FINITE-DIFFERENCE OPTION, MIXELM=0) 
 = 0.8135E-01(WHEN MIN. R.F.=1)  AT K=   3, I=   2, J=  32


 TOTAL NUMBER OF POINT SOURCES/SINKS PRESENT IN THE FLOW MODEL =   240

 MAXIMUM STEPSIZE WHICH MEETS STABILITY CRITERION OF THE SINK & SOURCE TERM
 = 0.1000E+31(WHEN MIN. R.F.=1)  AT K=   0, I=   0, J=   0

 MAXIMUM STEPSIZE WHICH MEETS STABILITY CRITERION OF THE DISPERSION TERM
 = 0.5604E-02(WHEN MIN. R.F.=1)  AT K=   3, I=   2, J=  32
     1 CALLS TO GCG PACKAGE FOR TRANSPORT TIME STEP  11 IN FLOW TIME STEP  85 STRESS PERIOD   2
    10 TOTAL ITERATIONS
 
 SOLVING FOR HEAD 
 FLOW MODEL IS TRANSIENT
 FLOW MODEL CONTAINS CONSTANT-HEAD CELLS


 MAXIMUM STEPSIZE DURING WHICH ANY PARTICLE CANNOT MOVE MORE THAN ONE CELL
 = 0.1187    (WHEN MIN. R.F.=1)  AT K=   3, I=   2, J=  33

 MAXIMUM STEPSIZE WHICH MEETS STABILITY CRITERION OF THE ADVECTION TERM
 (FOR PURE FINITE-DIFFERENCE OPTION, MIXELM=0) 
 = 0.8135E-01(WHEN MIN. R.F.=1)  AT K=   3, I=   2, J=  32


 TOTAL NUMBER OF POINT SOURCES/SINKS PRESENT IN THE FLOW MODEL =   240

 MAXIMUM STEPSIZE WHICH MEETS STABILITY CRITERION OF THE SINK & SOURCE TERM
 = 0.1000E+31(WHEN MIN. R.F.=1)  AT K=   0, I=   0, J=   0

 MAXIMUM STEPSIZE WHICH MEETS STABILITY CRITERION OF THE DISPERSION TERM
 = 0.5603E-02(WHEN MIN. R.F.=1)  AT K=   3, I=   2, J=  32
     1 CALLS TO GCG PACKAGE FOR TRANSPORT TIME STEP  12 IN FLOW TIME STEP  85 STRESS PERIOD   2
     5 TOTAL ITERATIONS
  MAXIMUM CONCENTRATION CHANGES FOR EACH ITERATION:
  MAX. CHANGE LAYER,ROW,COL MAX. CHANGE LAYER,ROW,COL MAX. CHANGE LAYER,ROW,COL MAX. CHANGE LAYER,ROW,COL MAX. CHANGE LAYER,ROW,COL
 ------------------------------------------------------------------------------------------------------------------------------------
   0.1250E-03 ( 16,  2, 53)  0.5053E-05 (  6,  2, 61)  0.7256E-06 (  5,  2, 57)  0.1258E-06 (  7,  2, 60)  0.4631E-07 (  3,  3, 28)


                                          ================================================
                                                         FROM TIME =   86.000     TO    87.000    

 
 SOLVING FOR HEAD 
 FLOW MODEL IS TRANSIENT
 FLOW MODEL CONTAINS CONSTANT-HEAD CELLS


 MAXIMUM STEPSIZE DURING WHICH ANY PARTICLE CANNOT MOVE MORE THAN ONE CELL
 = 0.1187    (WHEN MIN. R.F.=1)  AT K=   3, I=   2, J=  33

 MAXIMUM STEPSIZE WHICH MEETS STABILITY CRITERION OF THE ADVECTION TERM
 (FOR PURE FINITE-DIFFERENCE OPTION, MIXELM=0) 
 = 0.8135E-01(WHEN MIN. R.F.=1)  AT K=   3, I=   2, J=  32


 TOTAL NUMBER OF POINT SOURCES/SINKS PRESENT IN THE FLOW MODEL =   240

 MAXIMUM STEPSIZE WHICH MEETS STABILITY CRITERION OF THE SINK & SOURCE TERM
 = 0.1000E+31(WHEN MIN. R.F.=1)  AT K=   0, I=   0, J=   0

 MAXIMUM STEPSIZE WHICH MEETS STABILITY CRITERION OF THE DISPERSION TERM
 = 0.5603E-02(WHEN MIN. R.F.=1)  AT K=   3, I=   2, J=  32


     1 CALLS TO GCG PACKAGE FOR TRANSPORT TIME STEP   1 IN FLOW TIME STEP  86 STRESS PERIOD   2
    10 TOTAL ITERATIONS

 NO OUTPUT CONTROL FOR STRESS PERIOD    2   TIME STEP  86
 
 SOLVING FOR HEAD 
 FLOW MODEL IS TRANSIENT
 FLOW MODEL CONTAINS CONSTANT-HEAD CELLS


 MAXIMUM STEPSIZE DURING WHICH ANY PARTICLE CANNOT MOVE MORE THAN ONE CELL
 = 0.1187    (WHEN MIN. R.F.=1)  AT K=   3, I=   2, J=  33

 MAXIMUM STEPSIZE WHICH MEETS STABILITY CRITERION OF THE ADVECTION TERM
 (FOR PURE FINITE-DIFFERENCE OPTION, MIXELM=0) 
 = 0.8135E-01(WHEN MIN. R.F.=1)  AT K=   3, I=   2, J=  32


 TOTAL NUMBER OF POINT SOURCES/SINKS PRESENT IN THE FLOW MODEL =   240

 MAXIMUM STEPSIZE WHICH MEETS STABILITY CRITERION OF THE SINK & SOURCE TERM
 = 0.1000E+31(WHEN MIN. R.F.=1)  AT K=   0, I=   0, J=   0

 MAXIMUM STEPSIZE WHICH MEETS STABILITY CRITERION OF THE DISPERSION TERM
 = 0.5603E-02(WHEN MIN. R.F.=1)  AT K=   3, I=   2, J=  32
     1 CALLS TO GCG PACKAGE FOR TRANSPORT TIME STEP   2 IN FLOW TIME STEP  86 STRESS PERIOD   2
    11 TOTAL ITERATIONS
 
 SOLVING FOR HEAD 
 FLOW MODEL IS TRANSIENT
 FLOW MODEL CONTAINS CONSTANT-HEAD CELLS


 MAXIMUM STEPSIZE DURING WHICH ANY PARTICLE CANNOT MOVE MORE THAN ONE CELL
 = 0.1187    (WHEN MIN. R.F.=1)  AT K=   3, I=   2, J=  33

 MAXIMUM STEPSIZE WHICH MEETS STABILITY CRITERION OF THE ADVECTION TERM
 (FOR PURE FINITE-DIFFERENCE OPTION, MIXELM=0) 
 = 0.8135E-01(WHEN MIN. R.F.=1)  AT K=   3, I=   2, J=  32


 TOTAL NUMBER OF POINT SOURCES/SINKS PRESENT IN THE FLOW MODEL =   240

 MAXIMUM STEPSIZE WHICH MEETS STABILITY CRITERION OF THE SINK & SOURCE TERM
 = 0.1000E+31(WHEN MIN. R.F.=1)  AT K=   0, I=   0, J=   0

 MAXIMUM STEPSIZE WHICH MEETS STABILITY CRITERION OF THE DISPERSION TERM
 = 0.5603E-02(WHEN MIN. R.F.=1)  AT K=   3, I=   2, J=  32
     1 CALLS TO GCG PACKAGE FOR TRANSPORT TIME STEP   3 IN FLOW TIME STEP  86 STRESS PERIOD   2
    10 TOTAL ITERATIONS
 
 SOLVING FOR HEAD 
 FLOW MODEL IS TRANSIENT
 FLOW MODEL CONTAINS CONSTANT-HEAD CELLS


 MAXIMUM STEPSIZE DURING WHICH ANY PARTICLE CANNOT MOVE MORE THAN ONE CELL
 = 0.1187    (WHEN MIN. R.F.=1)  AT K=   3, I=   2, J=  33

 MAXIMUM STEPSIZE WHICH MEETS STABILITY CRITERION OF THE ADVECTION TERM
 (FOR PURE FINITE-DIFFERENCE OPTION, MIXELM=0) 
 = 0.8135E-01(WHEN MIN. R.F.=1)  AT K=   3, I=   2, J=  32


 TOTAL NUMBER OF POINT SOURCES/SINKS PRESENT IN THE FLOW MODEL =   240

 MAXIMUM STEPSIZE WHICH MEETS STABILITY CRITERION OF THE SINK & SOURCE TERM
 = 0.1000E+31(WHEN MIN. R.F.=1)  AT K=   0, I=   0, J=   0

 MAXIMUM STEPSIZE WHICH MEETS STABILITY CRITERION OF THE DISPERSION TERM
 = 0.5603E-02(WHEN MIN. R.F.=1)  AT K=   3, I=   2, J=  32
     1 CALLS TO GCG PACKAGE FOR TRANSPORT TIME STEP   4 IN FLOW TIME STEP  86 STRESS PERIOD   2
    10 TOTAL ITERATIONS
 
 SOLVING FOR HEAD 
 FLOW MODEL IS TRANSIENT
 FLOW MODEL CONTAINS CONSTANT-HEAD CELLS


 MAXIMUM STEPSIZE DURING WHICH ANY PARTICLE CANNOT MOVE MORE THAN ONE CELL
 = 0.1187    (WHEN MIN. R.F.=1)  AT K=   3, I=   2, J=  33

 MAXIMUM STEPSIZE WHICH MEETS STABILITY CRITERION OF THE ADVECTION TERM
 (FOR PURE FINITE-DIFFERENCE OPTION, MIXELM=0) 
 = 0.8135E-01(WHEN MIN. R.F.=1)  AT K=   3, I=   2, J=  32


 TOTAL NUMBER OF POINT SOURCES/SINKS PRESENT IN THE FLOW MODEL =   240

 MAXIMUM STEPSIZE WHICH MEETS STABILITY CRITERION OF THE SINK & SOURCE TERM
 = 0.1000E+31(WHEN MIN. R.F.=1)  AT K=   0, I=   0, J=   0

 MAXIMUM STEPSIZE WHICH MEETS STABILITY CRITERION OF THE DISPERSION TERM
 = 0.5603E-02(WHEN MIN. R.F.=1)  AT K=   3, I=   2, J=  32
     1 CALLS TO GCG PACKAGE FOR TRANSPORT TIME STEP   5 IN FLOW TIME STEP  86 STRESS PERIOD   2
    10 TOTAL ITERATIONS
 
 SOLVING FOR HEAD 
 FLOW MODEL IS TRANSIENT
 FLOW MODEL CONTAINS CONSTANT-HEAD CELLS


 MAXIMUM STEPSIZE DURING WHICH ANY PARTICLE CANNOT MOVE MORE THAN ONE CELL
 = 0.1187    (WHEN MIN. R.F.=1)  AT K=   3, I=   2, J=  33

 MAXIMUM STEPSIZE WHICH MEETS STABILITY CRITERION OF THE ADVECTION TERM
 (FOR PURE FINITE-DIFFERENCE OPTION, MIXELM=0) 
 = 0.8135E-01(WHEN MIN. R.F.=1)  AT K=   3, I=   2, J=  32


 TOTAL NUMBER OF POINT SOURCES/SINKS PRESENT IN THE FLOW MODEL =   240

 MAXIMUM STEPSIZE WHICH MEETS STABILITY CRITERION OF THE SINK & SOURCE TERM
 = 0.1000E+31(WHEN MIN. R.F.=1)  AT K=   0, I=   0, J=   0

 MAXIMUM STEPSIZE WHICH MEETS STABILITY CRITERION OF THE DISPERSION TERM
 = 0.5603E-02(WHEN MIN. R.F.=1)  AT K=   3, I=   2, J=  32
     1 CALLS TO GCG PACKAGE FOR TRANSPORT TIME STEP   6 IN FLOW TIME STEP  86 STRESS PERIOD   2
    10 TOTAL ITERATIONS
 
 SOLVING FOR HEAD 
 FLOW MODEL IS TRANSIENT
 FLOW MODEL CONTAINS CONSTANT-HEAD CELLS


 MAXIMUM STEPSIZE DURING WHICH ANY PARTICLE CANNOT MOVE MORE THAN ONE CELL
 = 0.1187    (WHEN MIN. R.F.=1)  AT K=   3, I=   2, J=  33

 MAXIMUM STEPSIZE WHICH MEETS STABILITY CRITERION OF THE ADVECTION TERM
 (FOR PURE FINITE-DIFFERENCE OPTION, MIXELM=0) 
 = 0.8135E-01(WHEN MIN. R.F.=1)  AT K=   3, I=   2, J=  32


 TOTAL NUMBER OF POINT SOURCES/SINKS PRESENT IN THE FLOW MODEL =   240

 MAXIMUM STEPSIZE WHICH MEETS STABILITY CRITERION OF THE SINK & SOURCE TERM
 = 0.1000E+31(WHEN MIN. R.F.=1)  AT K=   0, I=   0, J=   0

 MAXIMUM STEPSIZE WHICH MEETS STABILITY CRITERION OF THE DISPERSION TERM
 = 0.5603E-02(WHEN MIN. R.F.=1)  AT K=   3, I=   2, J=  32
     1 CALLS TO GCG PACKAGE FOR TRANSPORT TIME STEP   7 IN FLOW TIME STEP  86 STRESS PERIOD   2
    10 TOTAL ITERATIONS
 
 SOLVING FOR HEAD 
 FLOW MODEL IS TRANSIENT
 FLOW MODEL CONTAINS CONSTANT-HEAD CELLS


 MAXIMUM STEPSIZE DURING WHICH ANY PARTICLE CANNOT MOVE MORE THAN ONE CELL
 = 0.1187    (WHEN MIN. R.F.=1)  AT K=   3, I=   2, J=  33

 MAXIMUM STEPSIZE WHICH MEETS STABILITY CRITERION OF THE ADVECTION TERM
 (FOR PURE FINITE-DIFFERENCE OPTION, MIXELM=0) 
 = 0.8135E-01(WHEN MIN. R.F.=1)  AT K=   3, I=   2, J=  32


 TOTAL NUMBER OF POINT SOURCES/SINKS PRESENT IN THE FLOW MODEL =   240

 MAXIMUM STEPSIZE WHICH MEETS STABILITY CRITERION OF THE SINK & SOURCE TERM
 = 0.1000E+31(WHEN MIN. R.F.=1)  AT K=   0, I=   0, J=   0

 MAXIMUM STEPSIZE WHICH MEETS STABILITY CRITERION OF THE DISPERSION TERM
 = 0.5603E-02(WHEN MIN. R.F.=1)  AT K=   3, I=   2, J=  32
     1 CALLS TO GCG PACKAGE FOR TRANSPORT TIME STEP   8 IN FLOW TIME STEP  86 STRESS PERIOD   2
    10 TOTAL ITERATIONS
 
 SOLVING FOR HEAD 
 FLOW MODEL IS TRANSIENT
 FLOW MODEL CONTAINS CONSTANT-HEAD CELLS


 MAXIMUM STEPSIZE DURING WHICH ANY PARTICLE CANNOT MOVE MORE THAN ONE CELL
 = 0.1187    (WHEN MIN. R.F.=1)  AT K=   3, I=   2, J=  33

 MAXIMUM STEPSIZE WHICH MEETS STABILITY CRITERION OF THE ADVECTION TERM
 (FOR PURE FINITE-DIFFERENCE OPTION, MIXELM=0) 
 = 0.8135E-01(WHEN MIN. R.F.=1)  AT K=   3, I=   2, J=  32


 TOTAL NUMBER OF POINT SOURCES/SINKS PRESENT IN THE FLOW MODEL =   240

 MAXIMUM STEPSIZE WHICH MEETS STABILITY CRITERION OF THE SINK & SOURCE TERM
 = 0.1000E+31(WHEN MIN. R.F.=1)  AT K=   0, I=   0, J=   0

 MAXIMUM STEPSIZE WHICH MEETS STABILITY CRITERION OF THE DISPERSION TERM
 = 0.5603E-02(WHEN MIN. R.F.=1)  AT K=   3, I=   2, J=  32
     1 CALLS TO GCG PACKAGE FOR TRANSPORT TIME STEP   9 IN FLOW TIME STEP  86 STRESS PERIOD   2
    10 TOTAL ITERATIONS
 
 SOLVING FOR HEAD 
 FLOW MODEL IS TRANSIENT
 FLOW MODEL CONTAINS CONSTANT-HEAD CELLS


 MAXIMUM STEPSIZE DURING WHICH ANY PARTICLE CANNOT MOVE MORE THAN ONE CELL
 = 0.1187    (WHEN MIN. R.F.=1)  AT K=   3, I=   2, J=  33

 MAXIMUM STEPSIZE WHICH MEETS STABILITY CRITERION OF THE ADVECTION TERM
 (FOR PURE FINITE-DIFFERENCE OPTION, MIXELM=0) 
 = 0.8135E-01(WHEN MIN. R.F.=1)  AT K=   3, I=   2, J=  32


 TOTAL NUMBER OF POINT SOURCES/SINKS PRESENT IN THE FLOW MODEL =   240

 MAXIMUM STEPSIZE WHICH MEETS STABILITY CRITERION OF THE SINK & SOURCE TERM
 = 0.1000E+31(WHEN MIN. R.F.=1)  AT K=   0, I=   0, J=   0

 MAXIMUM STEPSIZE WHICH MEETS STABILITY CRITERION OF THE DISPERSION TERM
 = 0.5603E-02(WHEN MIN. R.F.=1)  AT K=   3, I=   2, J=  32
     1 CALLS TO GCG PACKAGE FOR TRANSPORT TIME STEP  10 IN FLOW TIME STEP  86 STRESS PERIOD   2
    10 TOTAL ITERATIONS



 >>>>>>>>>>>>>>>>>>>>>>>>>>>>>>>>>>>>>>>>>>>>>>>>>>>>>>>FOR COMPONENT NO. 01<<<<<<<<<<<<<<<<<<<<<<<<<<<<<<<<<<<<<<<<<<<<<<<<<<<<<<<


                                            -------------------------------------------
                                                      TRANSPORT STEP NO.   10
                                            -------------------------------------------

 TOTAL ELAPSED TIME SINCE BEGINNING OF SIMULATION =   86.89022    D   
 .....................................................................

                     CUMULATIVE MASS BUDGETS AT END OF TRANSPORT STEP   10, TIME STEP   86, STRESS PERIOD    2
                     ------------------------------------------------------------------------------------------

                                                             IN                           OUT
                                                      ----------------             ----------------
                               CONSTANT CONCENTRATION:    12629.11                   -7684.522    
                                        CONSTANT HEAD:    0.000000                    0.000000    
                               MASS STOR (FLOW MODEL):   0.1315382E-01              -0.3434488E-02
                                MASS STORAGE (SOLUTE):    10.70031                   -4955.299    
                            ---------------------------------------------------------------------------
                                              [TOTAL]:    12639.82     KG            -12639.83     KG  

                                                          NET (IN - OUT):  -0.2942757E-02
                                                   DISCREPANCY (PERCENT):  -0.2328163E-04
 
 SOLVING FOR HEAD 
 FLOW MODEL IS TRANSIENT
 FLOW MODEL CONTAINS CONSTANT-HEAD CELLS


 MAXIMUM STEPSIZE DURING WHICH ANY PARTICLE CANNOT MOVE MORE THAN ONE CELL
 = 0.1187    (WHEN MIN. R.F.=1)  AT K=   3, I=   2, J=  33

 MAXIMUM STEPSIZE WHICH MEETS STABILITY CRITERION OF THE ADVECTION TERM
 (FOR PURE FINITE-DIFFERENCE OPTION, MIXELM=0) 
 = 0.8135E-01(WHEN MIN. R.F.=1)  AT K=   3, I=   2, J=  32


 TOTAL NUMBER OF POINT SOURCES/SINKS PRESENT IN THE FLOW MODEL =   240

 MAXIMUM STEPSIZE WHICH MEETS STABILITY CRITERION OF THE SINK & SOURCE TERM
 = 0.1000E+31(WHEN MIN. R.F.=1)  AT K=   0, I=   0, J=   0

 MAXIMUM STEPSIZE WHICH MEETS STABILITY CRITERION OF THE DISPERSION TERM
 = 0.5603E-02(WHEN MIN. R.F.=1)  AT K=   3, I=   2, J=  32
     1 CALLS TO GCG PACKAGE FOR TRANSPORT TIME STEP  11 IN FLOW TIME STEP  86 STRESS PERIOD   2
    10 TOTAL ITERATIONS
 
 SOLVING FOR HEAD 
 FLOW MODEL IS TRANSIENT
 FLOW MODEL CONTAINS CONSTANT-HEAD CELLS


 MAXIMUM STEPSIZE DURING WHICH ANY PARTICLE CANNOT MOVE MORE THAN ONE CELL
 = 0.1187    (WHEN MIN. R.F.=1)  AT K=   3, I=   2, J=  33

 MAXIMUM STEPSIZE WHICH MEETS STABILITY CRITERION OF THE ADVECTION TERM
 (FOR PURE FINITE-DIFFERENCE OPTION, MIXELM=0) 
 = 0.8135E-01(WHEN MIN. R.F.=1)  AT K=   3, I=   2, J=  32


 TOTAL NUMBER OF POINT SOURCES/SINKS PRESENT IN THE FLOW MODEL =   240

 MAXIMUM STEPSIZE WHICH MEETS STABILITY CRITERION OF THE SINK & SOURCE TERM
 = 0.1000E+31(WHEN MIN. R.F.=1)  AT K=   0, I=   0, J=   0

 MAXIMUM STEPSIZE WHICH MEETS STABILITY CRITERION OF THE DISPERSION TERM
 = 0.5603E-02(WHEN MIN. R.F.=1)  AT K=   3, I=   2, J=  32
     1 CALLS TO GCG PACKAGE FOR TRANSPORT TIME STEP  12 IN FLOW TIME STEP  86 STRESS PERIOD   2
     5 TOTAL ITERATIONS
  MAXIMUM CONCENTRATION CHANGES FOR EACH ITERATION:
  MAX. CHANGE LAYER,ROW,COL MAX. CHANGE LAYER,ROW,COL MAX. CHANGE LAYER,ROW,COL MAX. CHANGE LAYER,ROW,COL MAX. CHANGE LAYER,ROW,COL
 ------------------------------------------------------------------------------------------------------------------------------------
   0.1249E-03 ( 16,  2, 53)  0.4925E-05 (  6,  2, 61)  0.7055E-06 (  5,  2, 57)  0.1182E-06 (  7,  2, 60)  0.4350E-07 (  6,  2, 60)


                                          ================================================
                                                         FROM TIME =   87.000     TO    88.000    

 
 SOLVING FOR HEAD 
 FLOW MODEL IS TRANSIENT
 FLOW MODEL CONTAINS CONSTANT-HEAD CELLS


 MAXIMUM STEPSIZE DURING WHICH ANY PARTICLE CANNOT MOVE MORE THAN ONE CELL
 = 0.1187    (WHEN MIN. R.F.=1)  AT K=   3, I=   2, J=  33

 MAXIMUM STEPSIZE WHICH MEETS STABILITY CRITERION OF THE ADVECTION TERM
 (FOR PURE FINITE-DIFFERENCE OPTION, MIXELM=0) 
 = 0.8135E-01(WHEN MIN. R.F.=1)  AT K=   3, I=   2, J=  32


 TOTAL NUMBER OF POINT SOURCES/SINKS PRESENT IN THE FLOW MODEL =   240

 MAXIMUM STEPSIZE WHICH MEETS STABILITY CRITERION OF THE SINK & SOURCE TERM
 = 0.1000E+31(WHEN MIN. R.F.=1)  AT K=   0, I=   0, J=   0

 MAXIMUM STEPSIZE WHICH MEETS STABILITY CRITERION OF THE DISPERSION TERM
 = 0.5603E-02(WHEN MIN. R.F.=1)  AT K=   3, I=   2, J=  32


     1 CALLS TO GCG PACKAGE FOR TRANSPORT TIME STEP   1 IN FLOW TIME STEP  87 STRESS PERIOD   2
    10 TOTAL ITERATIONS

 NO OUTPUT CONTROL FOR STRESS PERIOD    2   TIME STEP  87
 
 SOLVING FOR HEAD 
 FLOW MODEL IS TRANSIENT
 FLOW MODEL CONTAINS CONSTANT-HEAD CELLS


 MAXIMUM STEPSIZE DURING WHICH ANY PARTICLE CANNOT MOVE MORE THAN ONE CELL
 = 0.1187    (WHEN MIN. R.F.=1)  AT K=   3, I=   2, J=  33

 MAXIMUM STEPSIZE WHICH MEETS STABILITY CRITERION OF THE ADVECTION TERM
 (FOR PURE FINITE-DIFFERENCE OPTION, MIXELM=0) 
 = 0.8135E-01(WHEN MIN. R.F.=1)  AT K=   3, I=   2, J=  32


 TOTAL NUMBER OF POINT SOURCES/SINKS PRESENT IN THE FLOW MODEL =   240

 MAXIMUM STEPSIZE WHICH MEETS STABILITY CRITERION OF THE SINK & SOURCE TERM
 = 0.1000E+31(WHEN MIN. R.F.=1)  AT K=   0, I=   0, J=   0

 MAXIMUM STEPSIZE WHICH MEETS STABILITY CRITERION OF THE DISPERSION TERM
 = 0.5603E-02(WHEN MIN. R.F.=1)  AT K=   3, I=   2, J=  32
     1 CALLS TO GCG PACKAGE FOR TRANSPORT TIME STEP   2 IN FLOW TIME STEP  87 STRESS PERIOD   2
    10 TOTAL ITERATIONS
 
 SOLVING FOR HEAD 
 FLOW MODEL IS TRANSIENT
 FLOW MODEL CONTAINS CONSTANT-HEAD CELLS


 MAXIMUM STEPSIZE DURING WHICH ANY PARTICLE CANNOT MOVE MORE THAN ONE CELL
 = 0.1187    (WHEN MIN. R.F.=1)  AT K=   3, I=   2, J=  33

 MAXIMUM STEPSIZE WHICH MEETS STABILITY CRITERION OF THE ADVECTION TERM
 (FOR PURE FINITE-DIFFERENCE OPTION, MIXELM=0) 
 = 0.8135E-01(WHEN MIN. R.F.=1)  AT K=   3, I=   2, J=  32


 TOTAL NUMBER OF POINT SOURCES/SINKS PRESENT IN THE FLOW MODEL =   240

 MAXIMUM STEPSIZE WHICH MEETS STABILITY CRITERION OF THE SINK & SOURCE TERM
 = 0.1000E+31(WHEN MIN. R.F.=1)  AT K=   0, I=   0, J=   0

 MAXIMUM STEPSIZE WHICH MEETS STABILITY CRITERION OF THE DISPERSION TERM
 = 0.5603E-02(WHEN MIN. R.F.=1)  AT K=   3, I=   2, J=  32
     1 CALLS TO GCG PACKAGE FOR TRANSPORT TIME STEP   3 IN FLOW TIME STEP  87 STRESS PERIOD   2
    10 TOTAL ITERATIONS
 
 SOLVING FOR HEAD 
 FLOW MODEL IS TRANSIENT
 FLOW MODEL CONTAINS CONSTANT-HEAD CELLS


 MAXIMUM STEPSIZE DURING WHICH ANY PARTICLE CANNOT MOVE MORE THAN ONE CELL
 = 0.1187    (WHEN MIN. R.F.=1)  AT K=   3, I=   2, J=  33

 MAXIMUM STEPSIZE WHICH MEETS STABILITY CRITERION OF THE ADVECTION TERM
 (FOR PURE FINITE-DIFFERENCE OPTION, MIXELM=0) 
 = 0.8135E-01(WHEN MIN. R.F.=1)  AT K=   3, I=   2, J=  32


 TOTAL NUMBER OF POINT SOURCES/SINKS PRESENT IN THE FLOW MODEL =   240

 MAXIMUM STEPSIZE WHICH MEETS STABILITY CRITERION OF THE SINK & SOURCE TERM
 = 0.1000E+31(WHEN MIN. R.F.=1)  AT K=   0, I=   0, J=   0

 MAXIMUM STEPSIZE WHICH MEETS STABILITY CRITERION OF THE DISPERSION TERM
 = 0.5603E-02(WHEN MIN. R.F.=1)  AT K=   3, I=   2, J=  32
     1 CALLS TO GCG PACKAGE FOR TRANSPORT TIME STEP   4 IN FLOW TIME STEP  87 STRESS PERIOD   2
    10 TOTAL ITERATIONS
 
 SOLVING FOR HEAD 
 FLOW MODEL IS TRANSIENT
 FLOW MODEL CONTAINS CONSTANT-HEAD CELLS


 MAXIMUM STEPSIZE DURING WHICH ANY PARTICLE CANNOT MOVE MORE THAN ONE CELL
 = 0.1187    (WHEN MIN. R.F.=1)  AT K=   3, I=   2, J=  33

 MAXIMUM STEPSIZE WHICH MEETS STABILITY CRITERION OF THE ADVECTION TERM
 (FOR PURE FINITE-DIFFERENCE OPTION, MIXELM=0) 
 = 0.8135E-01(WHEN MIN. R.F.=1)  AT K=   3, I=   2, J=  32


 TOTAL NUMBER OF POINT SOURCES/SINKS PRESENT IN THE FLOW MODEL =   240

 MAXIMUM STEPSIZE WHICH MEETS STABILITY CRITERION OF THE SINK & SOURCE TERM
 = 0.1000E+31(WHEN MIN. R.F.=1)  AT K=   0, I=   0, J=   0

 MAXIMUM STEPSIZE WHICH MEETS STABILITY CRITERION OF THE DISPERSION TERM
 = 0.5603E-02(WHEN MIN. R.F.=1)  AT K=   3, I=   2, J=  32
     1 CALLS TO GCG PACKAGE FOR TRANSPORT TIME STEP   5 IN FLOW TIME STEP  87 STRESS PERIOD   2
    10 TOTAL ITERATIONS
 
 SOLVING FOR HEAD 
 FLOW MODEL IS TRANSIENT
 FLOW MODEL CONTAINS CONSTANT-HEAD CELLS


 MAXIMUM STEPSIZE DURING WHICH ANY PARTICLE CANNOT MOVE MORE THAN ONE CELL
 = 0.1187    (WHEN MIN. R.F.=1)  AT K=   3, I=   2, J=  33

 MAXIMUM STEPSIZE WHICH MEETS STABILITY CRITERION OF THE ADVECTION TERM
 (FOR PURE FINITE-DIFFERENCE OPTION, MIXELM=0) 
 = 0.8135E-01(WHEN MIN. R.F.=1)  AT K=   3, I=   2, J=  32


 TOTAL NUMBER OF POINT SOURCES/SINKS PRESENT IN THE FLOW MODEL =   240

 MAXIMUM STEPSIZE WHICH MEETS STABILITY CRITERION OF THE SINK & SOURCE TERM
 = 0.1000E+31(WHEN MIN. R.F.=1)  AT K=   0, I=   0, J=   0

 MAXIMUM STEPSIZE WHICH MEETS STABILITY CRITERION OF THE DISPERSION TERM
 = 0.5603E-02(WHEN MIN. R.F.=1)  AT K=   3, I=   2, J=  32
     1 CALLS TO GCG PACKAGE FOR TRANSPORT TIME STEP   6 IN FLOW TIME STEP  87 STRESS PERIOD   2
    10 TOTAL ITERATIONS
 
 SOLVING FOR HEAD 
 FLOW MODEL IS TRANSIENT
 FLOW MODEL CONTAINS CONSTANT-HEAD CELLS


 MAXIMUM STEPSIZE DURING WHICH ANY PARTICLE CANNOT MOVE MORE THAN ONE CELL
 = 0.1187    (WHEN MIN. R.F.=1)  AT K=   3, I=   2, J=  33

 MAXIMUM STEPSIZE WHICH MEETS STABILITY CRITERION OF THE ADVECTION TERM
 (FOR PURE FINITE-DIFFERENCE OPTION, MIXELM=0) 
 = 0.8135E-01(WHEN MIN. R.F.=1)  AT K=   3, I=   2, J=  32


 TOTAL NUMBER OF POINT SOURCES/SINKS PRESENT IN THE FLOW MODEL =   240

 MAXIMUM STEPSIZE WHICH MEETS STABILITY CRITERION OF THE SINK & SOURCE TERM
 = 0.1000E+31(WHEN MIN. R.F.=1)  AT K=   0, I=   0, J=   0

 MAXIMUM STEPSIZE WHICH MEETS STABILITY CRITERION OF THE DISPERSION TERM
 = 0.5603E-02(WHEN MIN. R.F.=1)  AT K=   3, I=   2, J=  32
     1 CALLS TO GCG PACKAGE FOR TRANSPORT TIME STEP   7 IN FLOW TIME STEP  87 STRESS PERIOD   2
    10 TOTAL ITERATIONS
 
 SOLVING FOR HEAD 
 FLOW MODEL IS TRANSIENT
 FLOW MODEL CONTAINS CONSTANT-HEAD CELLS


 MAXIMUM STEPSIZE DURING WHICH ANY PARTICLE CANNOT MOVE MORE THAN ONE CELL
 = 0.1187    (WHEN MIN. R.F.=1)  AT K=   3, I=   2, J=  33

 MAXIMUM STEPSIZE WHICH MEETS STABILITY CRITERION OF THE ADVECTION TERM
 (FOR PURE FINITE-DIFFERENCE OPTION, MIXELM=0) 
 = 0.8135E-01(WHEN MIN. R.F.=1)  AT K=   3, I=   2, J=  32


 TOTAL NUMBER OF POINT SOURCES/SINKS PRESENT IN THE FLOW MODEL =   240

 MAXIMUM STEPSIZE WHICH MEETS STABILITY CRITERION OF THE SINK & SOURCE TERM
 = 0.1000E+31(WHEN MIN. R.F.=1)  AT K=   0, I=   0, J=   0

 MAXIMUM STEPSIZE WHICH MEETS STABILITY CRITERION OF THE DISPERSION TERM
 = 0.5603E-02(WHEN MIN. R.F.=1)  AT K=   3, I=   2, J=  32
     1 CALLS TO GCG PACKAGE FOR TRANSPORT TIME STEP   8 IN FLOW TIME STEP  87 STRESS PERIOD   2
    10 TOTAL ITERATIONS
 
 SOLVING FOR HEAD 
 FLOW MODEL IS TRANSIENT
 FLOW MODEL CONTAINS CONSTANT-HEAD CELLS


 MAXIMUM STEPSIZE DURING WHICH ANY PARTICLE CANNOT MOVE MORE THAN ONE CELL
 = 0.1187    (WHEN MIN. R.F.=1)  AT K=   3, I=   2, J=  33

 MAXIMUM STEPSIZE WHICH MEETS STABILITY CRITERION OF THE ADVECTION TERM
 (FOR PURE FINITE-DIFFERENCE OPTION, MIXELM=0) 
 = 0.8135E-01(WHEN MIN. R.F.=1)  AT K=   3, I=   2, J=  32


 TOTAL NUMBER OF POINT SOURCES/SINKS PRESENT IN THE FLOW MODEL =   240

 MAXIMUM STEPSIZE WHICH MEETS STABILITY CRITERION OF THE SINK & SOURCE TERM
 = 0.1000E+31(WHEN MIN. R.F.=1)  AT K=   0, I=   0, J=   0

 MAXIMUM STEPSIZE WHICH MEETS STABILITY CRITERION OF THE DISPERSION TERM
 = 0.5603E-02(WHEN MIN. R.F.=1)  AT K=   3, I=   2, J=  32
     1 CALLS TO GCG PACKAGE FOR TRANSPORT TIME STEP   9 IN FLOW TIME STEP  87 STRESS PERIOD   2
    10 TOTAL ITERATIONS
 
 SOLVING FOR HEAD 
 FLOW MODEL IS TRANSIENT
 FLOW MODEL CONTAINS CONSTANT-HEAD CELLS


 MAXIMUM STEPSIZE DURING WHICH ANY PARTICLE CANNOT MOVE MORE THAN ONE CELL
 = 0.1187    (WHEN MIN. R.F.=1)  AT K=   3, I=   2, J=  33

 MAXIMUM STEPSIZE WHICH MEETS STABILITY CRITERION OF THE ADVECTION TERM
 (FOR PURE FINITE-DIFFERENCE OPTION, MIXELM=0) 
 = 0.8135E-01(WHEN MIN. R.F.=1)  AT K=   3, I=   2, J=  32


 TOTAL NUMBER OF POINT SOURCES/SINKS PRESENT IN THE FLOW MODEL =   240

 MAXIMUM STEPSIZE WHICH MEETS STABILITY CRITERION OF THE SINK & SOURCE TERM
 = 0.1000E+31(WHEN MIN. R.F.=1)  AT K=   0, I=   0, J=   0

 MAXIMUM STEPSIZE WHICH MEETS STABILITY CRITERION OF THE DISPERSION TERM
 = 0.5603E-02(WHEN MIN. R.F.=1)  AT K=   3, I=   2, J=  32
     1 CALLS TO GCG PACKAGE FOR TRANSPORT TIME STEP  10 IN FLOW TIME STEP  87 STRESS PERIOD   2
    10 TOTAL ITERATIONS



 >>>>>>>>>>>>>>>>>>>>>>>>>>>>>>>>>>>>>>>>>>>>>>>>>>>>>>>FOR COMPONENT NO. 01<<<<<<<<<<<<<<<<<<<<<<<<<<<<<<<<<<<<<<<<<<<<<<<<<<<<<<<


                                            -------------------------------------------
                                                      TRANSPORT STEP NO.   10
                                            -------------------------------------------

 TOTAL ELAPSED TIME SINCE BEGINNING OF SIMULATION =   87.89021    D   
 .....................................................................

                     CUMULATIVE MASS BUDGETS AT END OF TRANSPORT STEP   10, TIME STEP   87, STRESS PERIOD    2
                     ------------------------------------------------------------------------------------------

                                                             IN                           OUT
                                                      ----------------             ----------------
                               CONSTANT CONCENTRATION:    12733.30                   -7777.541    
                                        CONSTANT HEAD:    0.000000                    0.000000    
                               MASS STOR (FLOW MODEL):   0.1316715E-01              -0.3436315E-02
                                MASS STORAGE (SOLUTE):    10.85115                   -4966.625    
                            ---------------------------------------------------------------------------
                                              [TOTAL]:    12744.17     KG            -12744.17     KG  

                                                          NET (IN - OUT):  -0.2840695E-02
                                                   DISCREPANCY (PERCENT):  -0.2229016E-04
 
 SOLVING FOR HEAD 
 FLOW MODEL IS TRANSIENT
 FLOW MODEL CONTAINS CONSTANT-HEAD CELLS


 MAXIMUM STEPSIZE DURING WHICH ANY PARTICLE CANNOT MOVE MORE THAN ONE CELL
 = 0.1187    (WHEN MIN. R.F.=1)  AT K=   3, I=   2, J=  33

 MAXIMUM STEPSIZE WHICH MEETS STABILITY CRITERION OF THE ADVECTION TERM
 (FOR PURE FINITE-DIFFERENCE OPTION, MIXELM=0) 
 = 0.8135E-01(WHEN MIN. R.F.=1)  AT K=   3, I=   2, J=  32


 TOTAL NUMBER OF POINT SOURCES/SINKS PRESENT IN THE FLOW MODEL =   240

 MAXIMUM STEPSIZE WHICH MEETS STABILITY CRITERION OF THE SINK & SOURCE TERM
 = 0.1000E+31(WHEN MIN. R.F.=1)  AT K=   0, I=   0, J=   0

 MAXIMUM STEPSIZE WHICH MEETS STABILITY CRITERION OF THE DISPERSION TERM
 = 0.5603E-02(WHEN MIN. R.F.=1)  AT K=   3, I=   2, J=  32
     1 CALLS TO GCG PACKAGE FOR TRANSPORT TIME STEP  11 IN FLOW TIME STEP  87 STRESS PERIOD   2
    10 TOTAL ITERATIONS
 
 SOLVING FOR HEAD 
 FLOW MODEL IS TRANSIENT
 FLOW MODEL CONTAINS CONSTANT-HEAD CELLS


 MAXIMUM STEPSIZE DURING WHICH ANY PARTICLE CANNOT MOVE MORE THAN ONE CELL
 = 0.1187    (WHEN MIN. R.F.=1)  AT K=   3, I=   2, J=  33

 MAXIMUM STEPSIZE WHICH MEETS STABILITY CRITERION OF THE ADVECTION TERM
 (FOR PURE FINITE-DIFFERENCE OPTION, MIXELM=0) 
 = 0.8135E-01(WHEN MIN. R.F.=1)  AT K=   3, I=   2, J=  32


 TOTAL NUMBER OF POINT SOURCES/SINKS PRESENT IN THE FLOW MODEL =   240

 MAXIMUM STEPSIZE WHICH MEETS STABILITY CRITERION OF THE SINK & SOURCE TERM
 = 0.1000E+31(WHEN MIN. R.F.=1)  AT K=   0, I=   0, J=   0

 MAXIMUM STEPSIZE WHICH MEETS STABILITY CRITERION OF THE DISPERSION TERM
 = 0.5603E-02(WHEN MIN. R.F.=1)  AT K=   3, I=   2, J=  32
     1 CALLS TO GCG PACKAGE FOR TRANSPORT TIME STEP  12 IN FLOW TIME STEP  87 STRESS PERIOD   2
     5 TOTAL ITERATIONS
  MAXIMUM CONCENTRATION CHANGES FOR EACH ITERATION:
  MAX. CHANGE LAYER,ROW,COL MAX. CHANGE LAYER,ROW,COL MAX. CHANGE LAYER,ROW,COL MAX. CHANGE LAYER,ROW,COL MAX. CHANGE LAYER,ROW,COL
 ------------------------------------------------------------------------------------------------------------------------------------
   0.1247E-03 ( 16,  2, 53)  0.4801E-05 (  6,  2, 61)  0.6860E-06 (  5,  2, 57)  0.1117E-06 (  7,  2, 61)  0.4147E-07 (  6,  2, 60)


                                          ================================================
                                                         FROM TIME =   88.000     TO    89.000    

 
 SOLVING FOR HEAD 
 FLOW MODEL IS TRANSIENT
 FLOW MODEL CONTAINS CONSTANT-HEAD CELLS


 MAXIMUM STEPSIZE DURING WHICH ANY PARTICLE CANNOT MOVE MORE THAN ONE CELL
 = 0.1187    (WHEN MIN. R.F.=1)  AT K=   3, I=   2, J=  33

 MAXIMUM STEPSIZE WHICH MEETS STABILITY CRITERION OF THE ADVECTION TERM
 (FOR PURE FINITE-DIFFERENCE OPTION, MIXELM=0) 
 = 0.8135E-01(WHEN MIN. R.F.=1)  AT K=   3, I=   2, J=  32


 TOTAL NUMBER OF POINT SOURCES/SINKS PRESENT IN THE FLOW MODEL =   240

 MAXIMUM STEPSIZE WHICH MEETS STABILITY CRITERION OF THE SINK & SOURCE TERM
 = 0.1000E+31(WHEN MIN. R.F.=1)  AT K=   0, I=   0, J=   0

 MAXIMUM STEPSIZE WHICH MEETS STABILITY CRITERION OF THE DISPERSION TERM
 = 0.5603E-02(WHEN MIN. R.F.=1)  AT K=   3, I=   2, J=  32


     1 CALLS TO GCG PACKAGE FOR TRANSPORT TIME STEP   1 IN FLOW TIME STEP  88 STRESS PERIOD   2
    10 TOTAL ITERATIONS

 NO OUTPUT CONTROL FOR STRESS PERIOD    2   TIME STEP  88
 
 SOLVING FOR HEAD 
 FLOW MODEL IS TRANSIENT
 FLOW MODEL CONTAINS CONSTANT-HEAD CELLS


 MAXIMUM STEPSIZE DURING WHICH ANY PARTICLE CANNOT MOVE MORE THAN ONE CELL
 = 0.1187    (WHEN MIN. R.F.=1)  AT K=   3, I=   2, J=  33

 MAXIMUM STEPSIZE WHICH MEETS STABILITY CRITERION OF THE ADVECTION TERM
 (FOR PURE FINITE-DIFFERENCE OPTION, MIXELM=0) 
 = 0.8135E-01(WHEN MIN. R.F.=1)  AT K=   3, I=   2, J=  32


 TOTAL NUMBER OF POINT SOURCES/SINKS PRESENT IN THE FLOW MODEL =   240

 MAXIMUM STEPSIZE WHICH MEETS STABILITY CRITERION OF THE SINK & SOURCE TERM
 = 0.1000E+31(WHEN MIN. R.F.=1)  AT K=   0, I=   0, J=   0

 MAXIMUM STEPSIZE WHICH MEETS STABILITY CRITERION OF THE DISPERSION TERM
 = 0.5603E-02(WHEN MIN. R.F.=1)  AT K=   3, I=   2, J=  32
     1 CALLS TO GCG PACKAGE FOR TRANSPORT TIME STEP   2 IN FLOW TIME STEP  88 STRESS PERIOD   2
    10 TOTAL ITERATIONS
 
 SOLVING FOR HEAD 
 FLOW MODEL IS TRANSIENT
 FLOW MODEL CONTAINS CONSTANT-HEAD CELLS


 MAXIMUM STEPSIZE DURING WHICH ANY PARTICLE CANNOT MOVE MORE THAN ONE CELL
 = 0.1187    (WHEN MIN. R.F.=1)  AT K=   3, I=   2, J=  33

 MAXIMUM STEPSIZE WHICH MEETS STABILITY CRITERION OF THE ADVECTION TERM
 (FOR PURE FINITE-DIFFERENCE OPTION, MIXELM=0) 
 = 0.8135E-01(WHEN MIN. R.F.=1)  AT K=   3, I=   2, J=  32


 TOTAL NUMBER OF POINT SOURCES/SINKS PRESENT IN THE FLOW MODEL =   240

 MAXIMUM STEPSIZE WHICH MEETS STABILITY CRITERION OF THE SINK & SOURCE TERM
 = 0.1000E+31(WHEN MIN. R.F.=1)  AT K=   0, I=   0, J=   0

 MAXIMUM STEPSIZE WHICH MEETS STABILITY CRITERION OF THE DISPERSION TERM
 = 0.5603E-02(WHEN MIN. R.F.=1)  AT K=   3, I=   2, J=  32
     1 CALLS TO GCG PACKAGE FOR TRANSPORT TIME STEP   3 IN FLOW TIME STEP  88 STRESS PERIOD   2
    10 TOTAL ITERATIONS
 
 SOLVING FOR HEAD 
 FLOW MODEL IS TRANSIENT
 FLOW MODEL CONTAINS CONSTANT-HEAD CELLS


 MAXIMUM STEPSIZE DURING WHICH ANY PARTICLE CANNOT MOVE MORE THAN ONE CELL
 = 0.1187    (WHEN MIN. R.F.=1)  AT K=   3, I=   2, J=  33

 MAXIMUM STEPSIZE WHICH MEETS STABILITY CRITERION OF THE ADVECTION TERM
 (FOR PURE FINITE-DIFFERENCE OPTION, MIXELM=0) 
 = 0.8135E-01(WHEN MIN. R.F.=1)  AT K=   3, I=   2, J=  32


 TOTAL NUMBER OF POINT SOURCES/SINKS PRESENT IN THE FLOW MODEL =   240

 MAXIMUM STEPSIZE WHICH MEETS STABILITY CRITERION OF THE SINK & SOURCE TERM
 = 0.1000E+31(WHEN MIN. R.F.=1)  AT K=   0, I=   0, J=   0

 MAXIMUM STEPSIZE WHICH MEETS STABILITY CRITERION OF THE DISPERSION TERM
 = 0.5603E-02(WHEN MIN. R.F.=1)  AT K=   3, I=   2, J=  32
     1 CALLS TO GCG PACKAGE FOR TRANSPORT TIME STEP   4 IN FLOW TIME STEP  88 STRESS PERIOD   2
    10 TOTAL ITERATIONS
 
 SOLVING FOR HEAD 
 FLOW MODEL IS TRANSIENT
 FLOW MODEL CONTAINS CONSTANT-HEAD CELLS


 MAXIMUM STEPSIZE DURING WHICH ANY PARTICLE CANNOT MOVE MORE THAN ONE CELL
 = 0.1187    (WHEN MIN. R.F.=1)  AT K=   3, I=   2, J=  33

 MAXIMUM STEPSIZE WHICH MEETS STABILITY CRITERION OF THE ADVECTION TERM
 (FOR PURE FINITE-DIFFERENCE OPTION, MIXELM=0) 
 = 0.8135E-01(WHEN MIN. R.F.=1)  AT K=   3, I=   2, J=  32


 TOTAL NUMBER OF POINT SOURCES/SINKS PRESENT IN THE FLOW MODEL =   240

 MAXIMUM STEPSIZE WHICH MEETS STABILITY CRITERION OF THE SINK & SOURCE TERM
 = 0.1000E+31(WHEN MIN. R.F.=1)  AT K=   0, I=   0, J=   0

 MAXIMUM STEPSIZE WHICH MEETS STABILITY CRITERION OF THE DISPERSION TERM
 = 0.5603E-02(WHEN MIN. R.F.=1)  AT K=   3, I=   2, J=  32
     1 CALLS TO GCG PACKAGE FOR TRANSPORT TIME STEP   5 IN FLOW TIME STEP  88 STRESS PERIOD   2
    10 TOTAL ITERATIONS
 
 SOLVING FOR HEAD 
 FLOW MODEL IS TRANSIENT
 FLOW MODEL CONTAINS CONSTANT-HEAD CELLS


 MAXIMUM STEPSIZE DURING WHICH ANY PARTICLE CANNOT MOVE MORE THAN ONE CELL
 = 0.1187    (WHEN MIN. R.F.=1)  AT K=   3, I=   2, J=  33

 MAXIMUM STEPSIZE WHICH MEETS STABILITY CRITERION OF THE ADVECTION TERM
 (FOR PURE FINITE-DIFFERENCE OPTION, MIXELM=0) 
 = 0.8135E-01(WHEN MIN. R.F.=1)  AT K=   3, I=   2, J=  32


 TOTAL NUMBER OF POINT SOURCES/SINKS PRESENT IN THE FLOW MODEL =   240

 MAXIMUM STEPSIZE WHICH MEETS STABILITY CRITERION OF THE SINK & SOURCE TERM
 = 0.1000E+31(WHEN MIN. R.F.=1)  AT K=   0, I=   0, J=   0

 MAXIMUM STEPSIZE WHICH MEETS STABILITY CRITERION OF THE DISPERSION TERM
 = 0.5603E-02(WHEN MIN. R.F.=1)  AT K=   3, I=   2, J=  32
     1 CALLS TO GCG PACKAGE FOR TRANSPORT TIME STEP   6 IN FLOW TIME STEP  88 STRESS PERIOD   2
    10 TOTAL ITERATIONS
 
 SOLVING FOR HEAD 
 FLOW MODEL IS TRANSIENT
 FLOW MODEL CONTAINS CONSTANT-HEAD CELLS


 MAXIMUM STEPSIZE DURING WHICH ANY PARTICLE CANNOT MOVE MORE THAN ONE CELL
 = 0.1187    (WHEN MIN. R.F.=1)  AT K=   3, I=   2, J=  33

 MAXIMUM STEPSIZE WHICH MEETS STABILITY CRITERION OF THE ADVECTION TERM
 (FOR PURE FINITE-DIFFERENCE OPTION, MIXELM=0) 
 = 0.8135E-01(WHEN MIN. R.F.=1)  AT K=   3, I=   2, J=  32


 TOTAL NUMBER OF POINT SOURCES/SINKS PRESENT IN THE FLOW MODEL =   240

 MAXIMUM STEPSIZE WHICH MEETS STABILITY CRITERION OF THE SINK & SOURCE TERM
 = 0.1000E+31(WHEN MIN. R.F.=1)  AT K=   0, I=   0, J=   0

 MAXIMUM STEPSIZE WHICH MEETS STABILITY CRITERION OF THE DISPERSION TERM
 = 0.5603E-02(WHEN MIN. R.F.=1)  AT K=   3, I=   2, J=  32
     1 CALLS TO GCG PACKAGE FOR TRANSPORT TIME STEP   7 IN FLOW TIME STEP  88 STRESS PERIOD   2
    10 TOTAL ITERATIONS
 
 SOLVING FOR HEAD 
 FLOW MODEL IS TRANSIENT
 FLOW MODEL CONTAINS CONSTANT-HEAD CELLS


 MAXIMUM STEPSIZE DURING WHICH ANY PARTICLE CANNOT MOVE MORE THAN ONE CELL
 = 0.1187    (WHEN MIN. R.F.=1)  AT K=   3, I=   2, J=  33

 MAXIMUM STEPSIZE WHICH MEETS STABILITY CRITERION OF THE ADVECTION TERM
 (FOR PURE FINITE-DIFFERENCE OPTION, MIXELM=0) 
 = 0.8135E-01(WHEN MIN. R.F.=1)  AT K=   3, I=   2, J=  32


 TOTAL NUMBER OF POINT SOURCES/SINKS PRESENT IN THE FLOW MODEL =   240

 MAXIMUM STEPSIZE WHICH MEETS STABILITY CRITERION OF THE SINK & SOURCE TERM
 = 0.1000E+31(WHEN MIN. R.F.=1)  AT K=   0, I=   0, J=   0

 MAXIMUM STEPSIZE WHICH MEETS STABILITY CRITERION OF THE DISPERSION TERM
 = 0.5603E-02(WHEN MIN. R.F.=1)  AT K=   3, I=   2, J=  32
     1 CALLS TO GCG PACKAGE FOR TRANSPORT TIME STEP   8 IN FLOW TIME STEP  88 STRESS PERIOD   2
    10 TOTAL ITERATIONS
 
 SOLVING FOR HEAD 
 FLOW MODEL IS TRANSIENT
 FLOW MODEL CONTAINS CONSTANT-HEAD CELLS


 MAXIMUM STEPSIZE DURING WHICH ANY PARTICLE CANNOT MOVE MORE THAN ONE CELL
 = 0.1187    (WHEN MIN. R.F.=1)  AT K=   3, I=   2, J=  33

 MAXIMUM STEPSIZE WHICH MEETS STABILITY CRITERION OF THE ADVECTION TERM
 (FOR PURE FINITE-DIFFERENCE OPTION, MIXELM=0) 
 = 0.8135E-01(WHEN MIN. R.F.=1)  AT K=   3, I=   2, J=  32


 TOTAL NUMBER OF POINT SOURCES/SINKS PRESENT IN THE FLOW MODEL =   240

 MAXIMUM STEPSIZE WHICH MEETS STABILITY CRITERION OF THE SINK & SOURCE TERM
 = 0.1000E+31(WHEN MIN. R.F.=1)  AT K=   0, I=   0, J=   0

 MAXIMUM STEPSIZE WHICH MEETS STABILITY CRITERION OF THE DISPERSION TERM
 = 0.5603E-02(WHEN MIN. R.F.=1)  AT K=   3, I=   2, J=  32
     1 CALLS TO GCG PACKAGE FOR TRANSPORT TIME STEP   9 IN FLOW TIME STEP  88 STRESS PERIOD   2
    10 TOTAL ITERATIONS
 
 SOLVING FOR HEAD 
 FLOW MODEL IS TRANSIENT
 FLOW MODEL CONTAINS CONSTANT-HEAD CELLS


 MAXIMUM STEPSIZE DURING WHICH ANY PARTICLE CANNOT MOVE MORE THAN ONE CELL
 = 0.1187    (WHEN MIN. R.F.=1)  AT K=   3, I=   2, J=  33

 MAXIMUM STEPSIZE WHICH MEETS STABILITY CRITERION OF THE ADVECTION TERM
 (FOR PURE FINITE-DIFFERENCE OPTION, MIXELM=0) 
 = 0.8135E-01(WHEN MIN. R.F.=1)  AT K=   3, I=   2, J=  32


 TOTAL NUMBER OF POINT SOURCES/SINKS PRESENT IN THE FLOW MODEL =   240

 MAXIMUM STEPSIZE WHICH MEETS STABILITY CRITERION OF THE SINK & SOURCE TERM
 = 0.1000E+31(WHEN MIN. R.F.=1)  AT K=   0, I=   0, J=   0

 MAXIMUM STEPSIZE WHICH MEETS STABILITY CRITERION OF THE DISPERSION TERM
 = 0.5603E-02(WHEN MIN. R.F.=1)  AT K=   3, I=   2, J=  32
     1 CALLS TO GCG PACKAGE FOR TRANSPORT TIME STEP  10 IN FLOW TIME STEP  88 STRESS PERIOD   2
    10 TOTAL ITERATIONS



 >>>>>>>>>>>>>>>>>>>>>>>>>>>>>>>>>>>>>>>>>>>>>>>>>>>>>>>FOR COMPONENT NO. 01<<<<<<<<<<<<<<<<<<<<<<<<<<<<<<<<<<<<<<<<<<<<<<<<<<<<<<<


                                            -------------------------------------------
                                                      TRANSPORT STEP NO.   10
                                            -------------------------------------------

 TOTAL ELAPSED TIME SINCE BEGINNING OF SIMULATION =   88.89020    D   
 .....................................................................

                     CUMULATIVE MASS BUDGETS AT END OF TRANSPORT STEP   10, TIME STEP   88, STRESS PERIOD    2
                     ------------------------------------------------------------------------------------------

                                                             IN                           OUT
                                                      ----------------             ----------------
                               CONSTANT CONCENTRATION:    12837.38                   -7870.570    
                                        CONSTANT HEAD:    0.000000                    0.000000    
                               MASS STOR (FLOW MODEL):   0.1318040E-01              -0.3438082E-02
                                MASS STORAGE (SOLUTE):    10.99810                   -4977.825    
                            ---------------------------------------------------------------------------
                                              [TOTAL]:    12848.40     KG            -12848.40     KG  

                                                          NET (IN - OUT):  -0.2729881E-02
                                                   DISCREPANCY (PERCENT):  -0.2124686E-04
 
 SOLVING FOR HEAD 
 FLOW MODEL IS TRANSIENT
 FLOW MODEL CONTAINS CONSTANT-HEAD CELLS


 MAXIMUM STEPSIZE DURING WHICH ANY PARTICLE CANNOT MOVE MORE THAN ONE CELL
 = 0.1187    (WHEN MIN. R.F.=1)  AT K=   3, I=   2, J=  33

 MAXIMUM STEPSIZE WHICH MEETS STABILITY CRITERION OF THE ADVECTION TERM
 (FOR PURE FINITE-DIFFERENCE OPTION, MIXELM=0) 
 = 0.8135E-01(WHEN MIN. R.F.=1)  AT K=   3, I=   2, J=  32


 TOTAL NUMBER OF POINT SOURCES/SINKS PRESENT IN THE FLOW MODEL =   240

 MAXIMUM STEPSIZE WHICH MEETS STABILITY CRITERION OF THE SINK & SOURCE TERM
 = 0.1000E+31(WHEN MIN. R.F.=1)  AT K=   0, I=   0, J=   0

 MAXIMUM STEPSIZE WHICH MEETS STABILITY CRITERION OF THE DISPERSION TERM
 = 0.5603E-02(WHEN MIN. R.F.=1)  AT K=   3, I=   2, J=  32
     1 CALLS TO GCG PACKAGE FOR TRANSPORT TIME STEP  11 IN FLOW TIME STEP  88 STRESS PERIOD   2
    10 TOTAL ITERATIONS
 
 SOLVING FOR HEAD 
 FLOW MODEL IS TRANSIENT
 FLOW MODEL CONTAINS CONSTANT-HEAD CELLS


 MAXIMUM STEPSIZE DURING WHICH ANY PARTICLE CANNOT MOVE MORE THAN ONE CELL
 = 0.1187    (WHEN MIN. R.F.=1)  AT K=   3, I=   2, J=  33

 MAXIMUM STEPSIZE WHICH MEETS STABILITY CRITERION OF THE ADVECTION TERM
 (FOR PURE FINITE-DIFFERENCE OPTION, MIXELM=0) 
 = 0.8135E-01(WHEN MIN. R.F.=1)  AT K=   3, I=   2, J=  32


 TOTAL NUMBER OF POINT SOURCES/SINKS PRESENT IN THE FLOW MODEL =   240

 MAXIMUM STEPSIZE WHICH MEETS STABILITY CRITERION OF THE SINK & SOURCE TERM
 = 0.1000E+31(WHEN MIN. R.F.=1)  AT K=   0, I=   0, J=   0

 MAXIMUM STEPSIZE WHICH MEETS STABILITY CRITERION OF THE DISPERSION TERM
 = 0.5603E-02(WHEN MIN. R.F.=1)  AT K=   3, I=   2, J=  32
     1 CALLS TO GCG PACKAGE FOR TRANSPORT TIME STEP  12 IN FLOW TIME STEP  88 STRESS PERIOD   2
     5 TOTAL ITERATIONS
  MAXIMUM CONCENTRATION CHANGES FOR EACH ITERATION:
  MAX. CHANGE LAYER,ROW,COL MAX. CHANGE LAYER,ROW,COL MAX. CHANGE LAYER,ROW,COL MAX. CHANGE LAYER,ROW,COL MAX. CHANGE LAYER,ROW,COL
 ------------------------------------------------------------------------------------------------------------------------------------
   0.1241E-03 ( 16,  2, 53)  0.4682E-05 (  6,  2, 61)  0.6673E-06 (  5,  2, 57)  0.1057E-06 (  7,  2, 61)  0.3947E-07 (  6,  2, 60)


                                          ================================================
                                                         FROM TIME =   89.000     TO    90.000    

 
 SOLVING FOR HEAD 
 FLOW MODEL IS TRANSIENT
 FLOW MODEL CONTAINS CONSTANT-HEAD CELLS


 MAXIMUM STEPSIZE DURING WHICH ANY PARTICLE CANNOT MOVE MORE THAN ONE CELL
 = 0.1187    (WHEN MIN. R.F.=1)  AT K=   3, I=   2, J=  33

 MAXIMUM STEPSIZE WHICH MEETS STABILITY CRITERION OF THE ADVECTION TERM
 (FOR PURE FINITE-DIFFERENCE OPTION, MIXELM=0) 
 = 0.8135E-01(WHEN MIN. R.F.=1)  AT K=   3, I=   2, J=  32


 TOTAL NUMBER OF POINT SOURCES/SINKS PRESENT IN THE FLOW MODEL =   240

 MAXIMUM STEPSIZE WHICH MEETS STABILITY CRITERION OF THE SINK & SOURCE TERM
 = 0.1000E+31(WHEN MIN. R.F.=1)  AT K=   0, I=   0, J=   0

 MAXIMUM STEPSIZE WHICH MEETS STABILITY CRITERION OF THE DISPERSION TERM
 = 0.5603E-02(WHEN MIN. R.F.=1)  AT K=   3, I=   2, J=  32


     1 CALLS TO GCG PACKAGE FOR TRANSPORT TIME STEP   1 IN FLOW TIME STEP  89 STRESS PERIOD   2
    10 TOTAL ITERATIONS

 NO OUTPUT CONTROL FOR STRESS PERIOD    2   TIME STEP  89
 
 SOLVING FOR HEAD 
 FLOW MODEL IS TRANSIENT
 FLOW MODEL CONTAINS CONSTANT-HEAD CELLS


 MAXIMUM STEPSIZE DURING WHICH ANY PARTICLE CANNOT MOVE MORE THAN ONE CELL
 = 0.1187    (WHEN MIN. R.F.=1)  AT K=   3, I=   2, J=  33

 MAXIMUM STEPSIZE WHICH MEETS STABILITY CRITERION OF THE ADVECTION TERM
 (FOR PURE FINITE-DIFFERENCE OPTION, MIXELM=0) 
 = 0.8135E-01(WHEN MIN. R.F.=1)  AT K=   3, I=   2, J=  32


 TOTAL NUMBER OF POINT SOURCES/SINKS PRESENT IN THE FLOW MODEL =   240

 MAXIMUM STEPSIZE WHICH MEETS STABILITY CRITERION OF THE SINK & SOURCE TERM
 = 0.1000E+31(WHEN MIN. R.F.=1)  AT K=   0, I=   0, J=   0

 MAXIMUM STEPSIZE WHICH MEETS STABILITY CRITERION OF THE DISPERSION TERM
 = 0.5603E-02(WHEN MIN. R.F.=1)  AT K=   3, I=   2, J=  32
     1 CALLS TO GCG PACKAGE FOR TRANSPORT TIME STEP   2 IN FLOW TIME STEP  89 STRESS PERIOD   2
    10 TOTAL ITERATIONS
 
 SOLVING FOR HEAD 
 FLOW MODEL IS TRANSIENT
 FLOW MODEL CONTAINS CONSTANT-HEAD CELLS


 MAXIMUM STEPSIZE DURING WHICH ANY PARTICLE CANNOT MOVE MORE THAN ONE CELL
 = 0.1187    (WHEN MIN. R.F.=1)  AT K=   3, I=   2, J=  33

 MAXIMUM STEPSIZE WHICH MEETS STABILITY CRITERION OF THE ADVECTION TERM
 (FOR PURE FINITE-DIFFERENCE OPTION, MIXELM=0) 
 = 0.8135E-01(WHEN MIN. R.F.=1)  AT K=   3, I=   2, J=  32


 TOTAL NUMBER OF POINT SOURCES/SINKS PRESENT IN THE FLOW MODEL =   240

 MAXIMUM STEPSIZE WHICH MEETS STABILITY CRITERION OF THE SINK & SOURCE TERM
 = 0.1000E+31(WHEN MIN. R.F.=1)  AT K=   0, I=   0, J=   0

 MAXIMUM STEPSIZE WHICH MEETS STABILITY CRITERION OF THE DISPERSION TERM
 = 0.5603E-02(WHEN MIN. R.F.=1)  AT K=   3, I=   2, J=  32
     1 CALLS TO GCG PACKAGE FOR TRANSPORT TIME STEP   3 IN FLOW TIME STEP  89 STRESS PERIOD   2
    10 TOTAL ITERATIONS
 
 SOLVING FOR HEAD 
 FLOW MODEL IS TRANSIENT
 FLOW MODEL CONTAINS CONSTANT-HEAD CELLS


 MAXIMUM STEPSIZE DURING WHICH ANY PARTICLE CANNOT MOVE MORE THAN ONE CELL
 = 0.1187    (WHEN MIN. R.F.=1)  AT K=   3, I=   2, J=  33

 MAXIMUM STEPSIZE WHICH MEETS STABILITY CRITERION OF THE ADVECTION TERM
 (FOR PURE FINITE-DIFFERENCE OPTION, MIXELM=0) 
 = 0.8135E-01(WHEN MIN. R.F.=1)  AT K=   3, I=   2, J=  32


 TOTAL NUMBER OF POINT SOURCES/SINKS PRESENT IN THE FLOW MODEL =   240

 MAXIMUM STEPSIZE WHICH MEETS STABILITY CRITERION OF THE SINK & SOURCE TERM
 = 0.1000E+31(WHEN MIN. R.F.=1)  AT K=   0, I=   0, J=   0

 MAXIMUM STEPSIZE WHICH MEETS STABILITY CRITERION OF THE DISPERSION TERM
 = 0.5603E-02(WHEN MIN. R.F.=1)  AT K=   3, I=   2, J=  32
     1 CALLS TO GCG PACKAGE FOR TRANSPORT TIME STEP   4 IN FLOW TIME STEP  89 STRESS PERIOD   2
    10 TOTAL ITERATIONS
 
 SOLVING FOR HEAD 
 FLOW MODEL IS TRANSIENT
 FLOW MODEL CONTAINS CONSTANT-HEAD CELLS


 MAXIMUM STEPSIZE DURING WHICH ANY PARTICLE CANNOT MOVE MORE THAN ONE CELL
 = 0.1187    (WHEN MIN. R.F.=1)  AT K=   3, I=   2, J=  33

 MAXIMUM STEPSIZE WHICH MEETS STABILITY CRITERION OF THE ADVECTION TERM
 (FOR PURE FINITE-DIFFERENCE OPTION, MIXELM=0) 
 = 0.8135E-01(WHEN MIN. R.F.=1)  AT K=   3, I=   2, J=  32


 TOTAL NUMBER OF POINT SOURCES/SINKS PRESENT IN THE FLOW MODEL =   240

 MAXIMUM STEPSIZE WHICH MEETS STABILITY CRITERION OF THE SINK & SOURCE TERM
 = 0.1000E+31(WHEN MIN. R.F.=1)  AT K=   0, I=   0, J=   0

 MAXIMUM STEPSIZE WHICH MEETS STABILITY CRITERION OF THE DISPERSION TERM
 = 0.5603E-02(WHEN MIN. R.F.=1)  AT K=   3, I=   2, J=  32
     1 CALLS TO GCG PACKAGE FOR TRANSPORT TIME STEP   5 IN FLOW TIME STEP  89 STRESS PERIOD   2
    10 TOTAL ITERATIONS
 
 SOLVING FOR HEAD 
 FLOW MODEL IS TRANSIENT
 FLOW MODEL CONTAINS CONSTANT-HEAD CELLS


 MAXIMUM STEPSIZE DURING WHICH ANY PARTICLE CANNOT MOVE MORE THAN ONE CELL
 = 0.1187    (WHEN MIN. R.F.=1)  AT K=   3, I=   2, J=  33

 MAXIMUM STEPSIZE WHICH MEETS STABILITY CRITERION OF THE ADVECTION TERM
 (FOR PURE FINITE-DIFFERENCE OPTION, MIXELM=0) 
 = 0.8135E-01(WHEN MIN. R.F.=1)  AT K=   3, I=   2, J=  32


 TOTAL NUMBER OF POINT SOURCES/SINKS PRESENT IN THE FLOW MODEL =   240

 MAXIMUM STEPSIZE WHICH MEETS STABILITY CRITERION OF THE SINK & SOURCE TERM
 = 0.1000E+31(WHEN MIN. R.F.=1)  AT K=   0, I=   0, J=   0

 MAXIMUM STEPSIZE WHICH MEETS STABILITY CRITERION OF THE DISPERSION TERM
 = 0.5603E-02(WHEN MIN. R.F.=1)  AT K=   3, I=   2, J=  32
     1 CALLS TO GCG PACKAGE FOR TRANSPORT TIME STEP   6 IN FLOW TIME STEP  89 STRESS PERIOD   2
    10 TOTAL ITERATIONS
 
 SOLVING FOR HEAD 
 FLOW MODEL IS TRANSIENT
 FLOW MODEL CONTAINS CONSTANT-HEAD CELLS


 MAXIMUM STEPSIZE DURING WHICH ANY PARTICLE CANNOT MOVE MORE THAN ONE CELL
 = 0.1187    (WHEN MIN. R.F.=1)  AT K=   3, I=   2, J=  33

 MAXIMUM STEPSIZE WHICH MEETS STABILITY CRITERION OF THE ADVECTION TERM
 (FOR PURE FINITE-DIFFERENCE OPTION, MIXELM=0) 
 = 0.8135E-01(WHEN MIN. R.F.=1)  AT K=   3, I=   2, J=  32


 TOTAL NUMBER OF POINT SOURCES/SINKS PRESENT IN THE FLOW MODEL =   240

 MAXIMUM STEPSIZE WHICH MEETS STABILITY CRITERION OF THE SINK & SOURCE TERM
 = 0.1000E+31(WHEN MIN. R.F.=1)  AT K=   0, I=   0, J=   0

 MAXIMUM STEPSIZE WHICH MEETS STABILITY CRITERION OF THE DISPERSION TERM
 = 0.5603E-02(WHEN MIN. R.F.=1)  AT K=   3, I=   2, J=  32
     1 CALLS TO GCG PACKAGE FOR TRANSPORT TIME STEP   7 IN FLOW TIME STEP  89 STRESS PERIOD   2
    10 TOTAL ITERATIONS
 
 SOLVING FOR HEAD 
 FLOW MODEL IS TRANSIENT
 FLOW MODEL CONTAINS CONSTANT-HEAD CELLS


 MAXIMUM STEPSIZE DURING WHICH ANY PARTICLE CANNOT MOVE MORE THAN ONE CELL
 = 0.1187    (WHEN MIN. R.F.=1)  AT K=   3, I=   2, J=  33

 MAXIMUM STEPSIZE WHICH MEETS STABILITY CRITERION OF THE ADVECTION TERM
 (FOR PURE FINITE-DIFFERENCE OPTION, MIXELM=0) 
 = 0.8135E-01(WHEN MIN. R.F.=1)  AT K=   3, I=   2, J=  32


 TOTAL NUMBER OF POINT SOURCES/SINKS PRESENT IN THE FLOW MODEL =   240

 MAXIMUM STEPSIZE WHICH MEETS STABILITY CRITERION OF THE SINK & SOURCE TERM
 = 0.1000E+31(WHEN MIN. R.F.=1)  AT K=   0, I=   0, J=   0

 MAXIMUM STEPSIZE WHICH MEETS STABILITY CRITERION OF THE DISPERSION TERM
 = 0.5603E-02(WHEN MIN. R.F.=1)  AT K=   3, I=   2, J=  32
     1 CALLS TO GCG PACKAGE FOR TRANSPORT TIME STEP   8 IN FLOW TIME STEP  89 STRESS PERIOD   2
    10 TOTAL ITERATIONS
 
 SOLVING FOR HEAD 
 FLOW MODEL IS TRANSIENT
 FLOW MODEL CONTAINS CONSTANT-HEAD CELLS


 MAXIMUM STEPSIZE DURING WHICH ANY PARTICLE CANNOT MOVE MORE THAN ONE CELL
 = 0.1187    (WHEN MIN. R.F.=1)  AT K=   3, I=   2, J=  33

 MAXIMUM STEPSIZE WHICH MEETS STABILITY CRITERION OF THE ADVECTION TERM
 (FOR PURE FINITE-DIFFERENCE OPTION, MIXELM=0) 
 = 0.8135E-01(WHEN MIN. R.F.=1)  AT K=   3, I=   2, J=  32


 TOTAL NUMBER OF POINT SOURCES/SINKS PRESENT IN THE FLOW MODEL =   240

 MAXIMUM STEPSIZE WHICH MEETS STABILITY CRITERION OF THE SINK & SOURCE TERM
 = 0.1000E+31(WHEN MIN. R.F.=1)  AT K=   0, I=   0, J=   0

 MAXIMUM STEPSIZE WHICH MEETS STABILITY CRITERION OF THE DISPERSION TERM
 = 0.5603E-02(WHEN MIN. R.F.=1)  AT K=   3, I=   2, J=  32
     1 CALLS TO GCG PACKAGE FOR TRANSPORT TIME STEP   9 IN FLOW TIME STEP  89 STRESS PERIOD   2
    10 TOTAL ITERATIONS
 
 SOLVING FOR HEAD 
 FLOW MODEL IS TRANSIENT
 FLOW MODEL CONTAINS CONSTANT-HEAD CELLS


 MAXIMUM STEPSIZE DURING WHICH ANY PARTICLE CANNOT MOVE MORE THAN ONE CELL
 = 0.1187    (WHEN MIN. R.F.=1)  AT K=   3, I=   2, J=  33

 MAXIMUM STEPSIZE WHICH MEETS STABILITY CRITERION OF THE ADVECTION TERM
 (FOR PURE FINITE-DIFFERENCE OPTION, MIXELM=0) 
 = 0.8135E-01(WHEN MIN. R.F.=1)  AT K=   3, I=   2, J=  32


 TOTAL NUMBER OF POINT SOURCES/SINKS PRESENT IN THE FLOW MODEL =   240

 MAXIMUM STEPSIZE WHICH MEETS STABILITY CRITERION OF THE SINK & SOURCE TERM
 = 0.1000E+31(WHEN MIN. R.F.=1)  AT K=   0, I=   0, J=   0

 MAXIMUM STEPSIZE WHICH MEETS STABILITY CRITERION OF THE DISPERSION TERM
 = 0.5603E-02(WHEN MIN. R.F.=1)  AT K=   3, I=   2, J=  32
     1 CALLS TO GCG PACKAGE FOR TRANSPORT TIME STEP  10 IN FLOW TIME STEP  89 STRESS PERIOD   2
    10 TOTAL ITERATIONS



 >>>>>>>>>>>>>>>>>>>>>>>>>>>>>>>>>>>>>>>>>>>>>>>>>>>>>>>FOR COMPONENT NO. 01<<<<<<<<<<<<<<<<<<<<<<<<<<<<<<<<<<<<<<<<<<<<<<<<<<<<<<<


                                            -------------------------------------------
                                                      TRANSPORT STEP NO.   10
                                            -------------------------------------------

 TOTAL ELAPSED TIME SINCE BEGINNING OF SIMULATION =   89.89019    D   
 .....................................................................

                     CUMULATIVE MASS BUDGETS AT END OF TRANSPORT STEP   10, TIME STEP   89, STRESS PERIOD    2
                     ------------------------------------------------------------------------------------------

                                                             IN                           OUT
                                                      ----------------             ----------------
                               CONSTANT CONCENTRATION:    12941.36                   -7963.607    
                                        CONSTANT HEAD:    0.000000                    0.000000    
                               MASS STOR (FLOW MODEL):   0.1319357E-01              -0.3439792E-02
                                MASS STORAGE (SOLUTE):    11.14202                   -4988.904    
                            ---------------------------------------------------------------------------
                                              [TOTAL]:    12952.51     KG            -12952.51     KG  

                                                          NET (IN - OUT):  -0.2611586E-02
                                                   DISCREPANCY (PERCENT):  -0.2016278E-04
 
 SOLVING FOR HEAD 
 FLOW MODEL IS TRANSIENT
 FLOW MODEL CONTAINS CONSTANT-HEAD CELLS


 MAXIMUM STEPSIZE DURING WHICH ANY PARTICLE CANNOT MOVE MORE THAN ONE CELL
 = 0.1187    (WHEN MIN. R.F.=1)  AT K=   3, I=   2, J=  33

 MAXIMUM STEPSIZE WHICH MEETS STABILITY CRITERION OF THE ADVECTION TERM
 (FOR PURE FINITE-DIFFERENCE OPTION, MIXELM=0) 
 = 0.8135E-01(WHEN MIN. R.F.=1)  AT K=   3, I=   2, J=  32


 TOTAL NUMBER OF POINT SOURCES/SINKS PRESENT IN THE FLOW MODEL =   240

 MAXIMUM STEPSIZE WHICH MEETS STABILITY CRITERION OF THE SINK & SOURCE TERM
 = 0.1000E+31(WHEN MIN. R.F.=1)  AT K=   0, I=   0, J=   0

 MAXIMUM STEPSIZE WHICH MEETS STABILITY CRITERION OF THE DISPERSION TERM
 = 0.5603E-02(WHEN MIN. R.F.=1)  AT K=   3, I=   2, J=  32
     1 CALLS TO GCG PACKAGE FOR TRANSPORT TIME STEP  11 IN FLOW TIME STEP  89 STRESS PERIOD   2
    10 TOTAL ITERATIONS
 
 SOLVING FOR HEAD 
 FLOW MODEL IS TRANSIENT
 FLOW MODEL CONTAINS CONSTANT-HEAD CELLS


 MAXIMUM STEPSIZE DURING WHICH ANY PARTICLE CANNOT MOVE MORE THAN ONE CELL
 = 0.1187    (WHEN MIN. R.F.=1)  AT K=   3, I=   2, J=  33

 MAXIMUM STEPSIZE WHICH MEETS STABILITY CRITERION OF THE ADVECTION TERM
 (FOR PURE FINITE-DIFFERENCE OPTION, MIXELM=0) 
 = 0.8135E-01(WHEN MIN. R.F.=1)  AT K=   3, I=   2, J=  32


 TOTAL NUMBER OF POINT SOURCES/SINKS PRESENT IN THE FLOW MODEL =   240

 MAXIMUM STEPSIZE WHICH MEETS STABILITY CRITERION OF THE SINK & SOURCE TERM
 = 0.1000E+31(WHEN MIN. R.F.=1)  AT K=   0, I=   0, J=   0

 MAXIMUM STEPSIZE WHICH MEETS STABILITY CRITERION OF THE DISPERSION TERM
 = 0.5603E-02(WHEN MIN. R.F.=1)  AT K=   3, I=   2, J=  32
     1 CALLS TO GCG PACKAGE FOR TRANSPORT TIME STEP  12 IN FLOW TIME STEP  89 STRESS PERIOD   2
     5 TOTAL ITERATIONS
  MAXIMUM CONCENTRATION CHANGES FOR EACH ITERATION:
  MAX. CHANGE LAYER,ROW,COL MAX. CHANGE LAYER,ROW,COL MAX. CHANGE LAYER,ROW,COL MAX. CHANGE LAYER,ROW,COL MAX. CHANGE LAYER,ROW,COL
 ------------------------------------------------------------------------------------------------------------------------------------
   0.1233E-03 ( 16,  2, 53)  0.4567E-05 (  6,  2, 61)  0.6495E-06 (  5,  2, 57)  0.1001E-06 (  7,  2, 61)  0.3751E-07 (  6,  2, 60)


                                          ================================================
                                                         FROM TIME =   90.000     TO    91.000    

 
 SOLVING FOR HEAD 
 FLOW MODEL IS TRANSIENT
 FLOW MODEL CONTAINS CONSTANT-HEAD CELLS


 MAXIMUM STEPSIZE DURING WHICH ANY PARTICLE CANNOT MOVE MORE THAN ONE CELL
 = 0.1187    (WHEN MIN. R.F.=1)  AT K=   3, I=   2, J=  33

 MAXIMUM STEPSIZE WHICH MEETS STABILITY CRITERION OF THE ADVECTION TERM
 (FOR PURE FINITE-DIFFERENCE OPTION, MIXELM=0) 
 = 0.8135E-01(WHEN MIN. R.F.=1)  AT K=   3, I=   2, J=  32


 TOTAL NUMBER OF POINT SOURCES/SINKS PRESENT IN THE FLOW MODEL =   240

 MAXIMUM STEPSIZE WHICH MEETS STABILITY CRITERION OF THE SINK & SOURCE TERM
 = 0.1000E+31(WHEN MIN. R.F.=1)  AT K=   0, I=   0, J=   0

 MAXIMUM STEPSIZE WHICH MEETS STABILITY CRITERION OF THE DISPERSION TERM
 = 0.5603E-02(WHEN MIN. R.F.=1)  AT K=   3, I=   2, J=  32


     1 CALLS TO GCG PACKAGE FOR TRANSPORT TIME STEP   1 IN FLOW TIME STEP  90 STRESS PERIOD   2
    10 TOTAL ITERATIONS

 NO OUTPUT CONTROL FOR STRESS PERIOD    2   TIME STEP  90
 
 SOLVING FOR HEAD 
 FLOW MODEL IS TRANSIENT
 FLOW MODEL CONTAINS CONSTANT-HEAD CELLS


 MAXIMUM STEPSIZE DURING WHICH ANY PARTICLE CANNOT MOVE MORE THAN ONE CELL
 = 0.1187    (WHEN MIN. R.F.=1)  AT K=   3, I=   2, J=  33

 MAXIMUM STEPSIZE WHICH MEETS STABILITY CRITERION OF THE ADVECTION TERM
 (FOR PURE FINITE-DIFFERENCE OPTION, MIXELM=0) 
 = 0.8135E-01(WHEN MIN. R.F.=1)  AT K=   3, I=   2, J=  32


 TOTAL NUMBER OF POINT SOURCES/SINKS PRESENT IN THE FLOW MODEL =   240

 MAXIMUM STEPSIZE WHICH MEETS STABILITY CRITERION OF THE SINK & SOURCE TERM
 = 0.1000E+31(WHEN MIN. R.F.=1)  AT K=   0, I=   0, J=   0

 MAXIMUM STEPSIZE WHICH MEETS STABILITY CRITERION OF THE DISPERSION TERM
 = 0.5603E-02(WHEN MIN. R.F.=1)  AT K=   3, I=   2, J=  32
     1 CALLS TO GCG PACKAGE FOR TRANSPORT TIME STEP   2 IN FLOW TIME STEP  90 STRESS PERIOD   2
    10 TOTAL ITERATIONS
 
 SOLVING FOR HEAD 
 FLOW MODEL IS TRANSIENT
 FLOW MODEL CONTAINS CONSTANT-HEAD CELLS


 MAXIMUM STEPSIZE DURING WHICH ANY PARTICLE CANNOT MOVE MORE THAN ONE CELL
 = 0.1187    (WHEN MIN. R.F.=1)  AT K=   3, I=   2, J=  33

 MAXIMUM STEPSIZE WHICH MEETS STABILITY CRITERION OF THE ADVECTION TERM
 (FOR PURE FINITE-DIFFERENCE OPTION, MIXELM=0) 
 = 0.8135E-01(WHEN MIN. R.F.=1)  AT K=   3, I=   2, J=  32


 TOTAL NUMBER OF POINT SOURCES/SINKS PRESENT IN THE FLOW MODEL =   240

 MAXIMUM STEPSIZE WHICH MEETS STABILITY CRITERION OF THE SINK & SOURCE TERM
 = 0.1000E+31(WHEN MIN. R.F.=1)  AT K=   0, I=   0, J=   0

 MAXIMUM STEPSIZE WHICH MEETS STABILITY CRITERION OF THE DISPERSION TERM
 = 0.5603E-02(WHEN MIN. R.F.=1)  AT K=   3, I=   2, J=  32
     1 CALLS TO GCG PACKAGE FOR TRANSPORT TIME STEP   3 IN FLOW TIME STEP  90 STRESS PERIOD   2
    10 TOTAL ITERATIONS
 
 SOLVING FOR HEAD 
 FLOW MODEL IS TRANSIENT
 FLOW MODEL CONTAINS CONSTANT-HEAD CELLS


 MAXIMUM STEPSIZE DURING WHICH ANY PARTICLE CANNOT MOVE MORE THAN ONE CELL
 = 0.1187    (WHEN MIN. R.F.=1)  AT K=   3, I=   2, J=  33

 MAXIMUM STEPSIZE WHICH MEETS STABILITY CRITERION OF THE ADVECTION TERM
 (FOR PURE FINITE-DIFFERENCE OPTION, MIXELM=0) 
 = 0.8135E-01(WHEN MIN. R.F.=1)  AT K=   3, I=   2, J=  32


 TOTAL NUMBER OF POINT SOURCES/SINKS PRESENT IN THE FLOW MODEL =   240

 MAXIMUM STEPSIZE WHICH MEETS STABILITY CRITERION OF THE SINK & SOURCE TERM
 = 0.1000E+31(WHEN MIN. R.F.=1)  AT K=   0, I=   0, J=   0

 MAXIMUM STEPSIZE WHICH MEETS STABILITY CRITERION OF THE DISPERSION TERM
 = 0.5603E-02(WHEN MIN. R.F.=1)  AT K=   3, I=   2, J=  32
     1 CALLS TO GCG PACKAGE FOR TRANSPORT TIME STEP   4 IN FLOW TIME STEP  90 STRESS PERIOD   2
    10 TOTAL ITERATIONS
 
 SOLVING FOR HEAD 
 FLOW MODEL IS TRANSIENT
 FLOW MODEL CONTAINS CONSTANT-HEAD CELLS


 MAXIMUM STEPSIZE DURING WHICH ANY PARTICLE CANNOT MOVE MORE THAN ONE CELL
 = 0.1187    (WHEN MIN. R.F.=1)  AT K=   3, I=   2, J=  33

 MAXIMUM STEPSIZE WHICH MEETS STABILITY CRITERION OF THE ADVECTION TERM
 (FOR PURE FINITE-DIFFERENCE OPTION, MIXELM=0) 
 = 0.8135E-01(WHEN MIN. R.F.=1)  AT K=   3, I=   2, J=  32


 TOTAL NUMBER OF POINT SOURCES/SINKS PRESENT IN THE FLOW MODEL =   240

 MAXIMUM STEPSIZE WHICH MEETS STABILITY CRITERION OF THE SINK & SOURCE TERM
 = 0.1000E+31(WHEN MIN. R.F.=1)  AT K=   0, I=   0, J=   0

 MAXIMUM STEPSIZE WHICH MEETS STABILITY CRITERION OF THE DISPERSION TERM
 = 0.5603E-02(WHEN MIN. R.F.=1)  AT K=   3, I=   2, J=  32
     1 CALLS TO GCG PACKAGE FOR TRANSPORT TIME STEP   5 IN FLOW TIME STEP  90 STRESS PERIOD   2
    10 TOTAL ITERATIONS
 
 SOLVING FOR HEAD 
 FLOW MODEL IS TRANSIENT
 FLOW MODEL CONTAINS CONSTANT-HEAD CELLS


 MAXIMUM STEPSIZE DURING WHICH ANY PARTICLE CANNOT MOVE MORE THAN ONE CELL
 = 0.1187    (WHEN MIN. R.F.=1)  AT K=   3, I=   2, J=  33

 MAXIMUM STEPSIZE WHICH MEETS STABILITY CRITERION OF THE ADVECTION TERM
 (FOR PURE FINITE-DIFFERENCE OPTION, MIXELM=0) 
 = 0.8135E-01(WHEN MIN. R.F.=1)  AT K=   3, I=   2, J=  32


 TOTAL NUMBER OF POINT SOURCES/SINKS PRESENT IN THE FLOW MODEL =   240

 MAXIMUM STEPSIZE WHICH MEETS STABILITY CRITERION OF THE SINK & SOURCE TERM
 = 0.1000E+31(WHEN MIN. R.F.=1)  AT K=   0, I=   0, J=   0

 MAXIMUM STEPSIZE WHICH MEETS STABILITY CRITERION OF THE DISPERSION TERM
 = 0.5603E-02(WHEN MIN. R.F.=1)  AT K=   3, I=   2, J=  32
     1 CALLS TO GCG PACKAGE FOR TRANSPORT TIME STEP   6 IN FLOW TIME STEP  90 STRESS PERIOD   2
    10 TOTAL ITERATIONS
 
 SOLVING FOR HEAD 
 FLOW MODEL IS TRANSIENT
 FLOW MODEL CONTAINS CONSTANT-HEAD CELLS


 MAXIMUM STEPSIZE DURING WHICH ANY PARTICLE CANNOT MOVE MORE THAN ONE CELL
 = 0.1187    (WHEN MIN. R.F.=1)  AT K=   3, I=   2, J=  33

 MAXIMUM STEPSIZE WHICH MEETS STABILITY CRITERION OF THE ADVECTION TERM
 (FOR PURE FINITE-DIFFERENCE OPTION, MIXELM=0) 
 = 0.8135E-01(WHEN MIN. R.F.=1)  AT K=   3, I=   2, J=  32


 TOTAL NUMBER OF POINT SOURCES/SINKS PRESENT IN THE FLOW MODEL =   240

 MAXIMUM STEPSIZE WHICH MEETS STABILITY CRITERION OF THE SINK & SOURCE TERM
 = 0.1000E+31(WHEN MIN. R.F.=1)  AT K=   0, I=   0, J=   0

 MAXIMUM STEPSIZE WHICH MEETS STABILITY CRITERION OF THE DISPERSION TERM
 = 0.5603E-02(WHEN MIN. R.F.=1)  AT K=   3, I=   2, J=  32
     1 CALLS TO GCG PACKAGE FOR TRANSPORT TIME STEP   7 IN FLOW TIME STEP  90 STRESS PERIOD   2
    10 TOTAL ITERATIONS
 
 SOLVING FOR HEAD 
 FLOW MODEL IS TRANSIENT
 FLOW MODEL CONTAINS CONSTANT-HEAD CELLS


 MAXIMUM STEPSIZE DURING WHICH ANY PARTICLE CANNOT MOVE MORE THAN ONE CELL
 = 0.1187    (WHEN MIN. R.F.=1)  AT K=   3, I=   2, J=  33

 MAXIMUM STEPSIZE WHICH MEETS STABILITY CRITERION OF THE ADVECTION TERM
 (FOR PURE FINITE-DIFFERENCE OPTION, MIXELM=0) 
 = 0.8135E-01(WHEN MIN. R.F.=1)  AT K=   3, I=   2, J=  32


 TOTAL NUMBER OF POINT SOURCES/SINKS PRESENT IN THE FLOW MODEL =   240

 MAXIMUM STEPSIZE WHICH MEETS STABILITY CRITERION OF THE SINK & SOURCE TERM
 = 0.1000E+31(WHEN MIN. R.F.=1)  AT K=   0, I=   0, J=   0

 MAXIMUM STEPSIZE WHICH MEETS STABILITY CRITERION OF THE DISPERSION TERM
 = 0.5603E-02(WHEN MIN. R.F.=1)  AT K=   3, I=   2, J=  32
     1 CALLS TO GCG PACKAGE FOR TRANSPORT TIME STEP   8 IN FLOW TIME STEP  90 STRESS PERIOD   2
    10 TOTAL ITERATIONS
 
 SOLVING FOR HEAD 
 FLOW MODEL IS TRANSIENT
 FLOW MODEL CONTAINS CONSTANT-HEAD CELLS


 MAXIMUM STEPSIZE DURING WHICH ANY PARTICLE CANNOT MOVE MORE THAN ONE CELL
 = 0.1187    (WHEN MIN. R.F.=1)  AT K=   3, I=   2, J=  33

 MAXIMUM STEPSIZE WHICH MEETS STABILITY CRITERION OF THE ADVECTION TERM
 (FOR PURE FINITE-DIFFERENCE OPTION, MIXELM=0) 
 = 0.8135E-01(WHEN MIN. R.F.=1)  AT K=   3, I=   2, J=  32


 TOTAL NUMBER OF POINT SOURCES/SINKS PRESENT IN THE FLOW MODEL =   240

 MAXIMUM STEPSIZE WHICH MEETS STABILITY CRITERION OF THE SINK & SOURCE TERM
 = 0.1000E+31(WHEN MIN. R.F.=1)  AT K=   0, I=   0, J=   0

 MAXIMUM STEPSIZE WHICH MEETS STABILITY CRITERION OF THE DISPERSION TERM
 = 0.5603E-02(WHEN MIN. R.F.=1)  AT K=   3, I=   2, J=  32
     1 CALLS TO GCG PACKAGE FOR TRANSPORT TIME STEP   9 IN FLOW TIME STEP  90 STRESS PERIOD   2
    10 TOTAL ITERATIONS
 
 SOLVING FOR HEAD 
 FLOW MODEL IS TRANSIENT
 FLOW MODEL CONTAINS CONSTANT-HEAD CELLS


 MAXIMUM STEPSIZE DURING WHICH ANY PARTICLE CANNOT MOVE MORE THAN ONE CELL
 = 0.1187    (WHEN MIN. R.F.=1)  AT K=   3, I=   2, J=  33

 MAXIMUM STEPSIZE WHICH MEETS STABILITY CRITERION OF THE ADVECTION TERM
 (FOR PURE FINITE-DIFFERENCE OPTION, MIXELM=0) 
 = 0.8135E-01(WHEN MIN. R.F.=1)  AT K=   3, I=   2, J=  32


 TOTAL NUMBER OF POINT SOURCES/SINKS PRESENT IN THE FLOW MODEL =   240

 MAXIMUM STEPSIZE WHICH MEETS STABILITY CRITERION OF THE SINK & SOURCE TERM
 = 0.1000E+31(WHEN MIN. R.F.=1)  AT K=   0, I=   0, J=   0

 MAXIMUM STEPSIZE WHICH MEETS STABILITY CRITERION OF THE DISPERSION TERM
 = 0.5603E-02(WHEN MIN. R.F.=1)  AT K=   3, I=   2, J=  32
     1 CALLS TO GCG PACKAGE FOR TRANSPORT TIME STEP  10 IN FLOW TIME STEP  90 STRESS PERIOD   2
    10 TOTAL ITERATIONS



 >>>>>>>>>>>>>>>>>>>>>>>>>>>>>>>>>>>>>>>>>>>>>>>>>>>>>>>FOR COMPONENT NO. 01<<<<<<<<<<<<<<<<<<<<<<<<<<<<<<<<<<<<<<<<<<<<<<<<<<<<<<<


                                            -------------------------------------------
                                                      TRANSPORT STEP NO.   10
                                            -------------------------------------------

 TOTAL ELAPSED TIME SINCE BEGINNING OF SIMULATION =   90.89017    D   
 .....................................................................

                     CUMULATIVE MASS BUDGETS AT END OF TRANSPORT STEP   10, TIME STEP   90, STRESS PERIOD    2
                     ------------------------------------------------------------------------------------------

                                                             IN                           OUT
                                                      ----------------             ----------------
                               CONSTANT CONCENTRATION:    13045.22                   -8056.652    
                                        CONSTANT HEAD:    0.000000                    0.000000    
                               MASS STOR (FLOW MODEL):   0.1320666E-01              -0.3441449E-02
                                MASS STORAGE (SOLUTE):    11.28362                   -4999.868    
                            ---------------------------------------------------------------------------
                                              [TOTAL]:    13056.52     KG            -13056.52     KG  

                                                          NET (IN - OUT):  -0.2487678E-02
                                                   DISCREPANCY (PERCENT):  -0.1905315E-04
 
 SOLVING FOR HEAD 
 FLOW MODEL IS TRANSIENT
 FLOW MODEL CONTAINS CONSTANT-HEAD CELLS


 MAXIMUM STEPSIZE DURING WHICH ANY PARTICLE CANNOT MOVE MORE THAN ONE CELL
 = 0.1187    (WHEN MIN. R.F.=1)  AT K=   3, I=   2, J=  33

 MAXIMUM STEPSIZE WHICH MEETS STABILITY CRITERION OF THE ADVECTION TERM
 (FOR PURE FINITE-DIFFERENCE OPTION, MIXELM=0) 
 = 0.8135E-01(WHEN MIN. R.F.=1)  AT K=   3, I=   2, J=  32


 TOTAL NUMBER OF POINT SOURCES/SINKS PRESENT IN THE FLOW MODEL =   240

 MAXIMUM STEPSIZE WHICH MEETS STABILITY CRITERION OF THE SINK & SOURCE TERM
 = 0.1000E+31(WHEN MIN. R.F.=1)  AT K=   0, I=   0, J=   0

 MAXIMUM STEPSIZE WHICH MEETS STABILITY CRITERION OF THE DISPERSION TERM
 = 0.5603E-02(WHEN MIN. R.F.=1)  AT K=   3, I=   2, J=  32
     1 CALLS TO GCG PACKAGE FOR TRANSPORT TIME STEP  11 IN FLOW TIME STEP  90 STRESS PERIOD   2
    10 TOTAL ITERATIONS
 
 SOLVING FOR HEAD 
 FLOW MODEL IS TRANSIENT
 FLOW MODEL CONTAINS CONSTANT-HEAD CELLS


 MAXIMUM STEPSIZE DURING WHICH ANY PARTICLE CANNOT MOVE MORE THAN ONE CELL
 = 0.1187    (WHEN MIN. R.F.=1)  AT K=   3, I=   2, J=  33

 MAXIMUM STEPSIZE WHICH MEETS STABILITY CRITERION OF THE ADVECTION TERM
 (FOR PURE FINITE-DIFFERENCE OPTION, MIXELM=0) 
 = 0.8135E-01(WHEN MIN. R.F.=1)  AT K=   3, I=   2, J=  32


 TOTAL NUMBER OF POINT SOURCES/SINKS PRESENT IN THE FLOW MODEL =   240

 MAXIMUM STEPSIZE WHICH MEETS STABILITY CRITERION OF THE SINK & SOURCE TERM
 = 0.1000E+31(WHEN MIN. R.F.=1)  AT K=   0, I=   0, J=   0

 MAXIMUM STEPSIZE WHICH MEETS STABILITY CRITERION OF THE DISPERSION TERM
 = 0.5603E-02(WHEN MIN. R.F.=1)  AT K=   3, I=   2, J=  32
     1 CALLS TO GCG PACKAGE FOR TRANSPORT TIME STEP  12 IN FLOW TIME STEP  90 STRESS PERIOD   2
     4 TOTAL ITERATIONS
  MAXIMUM CONCENTRATION CHANGES FOR EACH ITERATION:
  MAX. CHANGE LAYER,ROW,COL MAX. CHANGE LAYER,ROW,COL MAX. CHANGE LAYER,ROW,COL MAX. CHANGE LAYER,ROW,COL MAX. CHANGE LAYER,ROW,COL
 ------------------------------------------------------------------------------------------------------------------------------------
   0.1222E-03 ( 16,  2, 53)  0.4456E-05 (  6,  2, 61)  0.6325E-06 (  5,  2, 57)  0.9501E-07 (  7,  2, 61)


                                          ================================================
                                                         FROM TIME =   91.000     TO    92.000    

 
 SOLVING FOR HEAD 
 FLOW MODEL IS TRANSIENT
 FLOW MODEL CONTAINS CONSTANT-HEAD CELLS


 MAXIMUM STEPSIZE DURING WHICH ANY PARTICLE CANNOT MOVE MORE THAN ONE CELL
 = 0.1187    (WHEN MIN. R.F.=1)  AT K=   3, I=   2, J=  33

 MAXIMUM STEPSIZE WHICH MEETS STABILITY CRITERION OF THE ADVECTION TERM
 (FOR PURE FINITE-DIFFERENCE OPTION, MIXELM=0) 
 = 0.8135E-01(WHEN MIN. R.F.=1)  AT K=   3, I=   2, J=  32


 TOTAL NUMBER OF POINT SOURCES/SINKS PRESENT IN THE FLOW MODEL =   240

 MAXIMUM STEPSIZE WHICH MEETS STABILITY CRITERION OF THE SINK & SOURCE TERM
 = 0.1000E+31(WHEN MIN. R.F.=1)  AT K=   0, I=   0, J=   0

 MAXIMUM STEPSIZE WHICH MEETS STABILITY CRITERION OF THE DISPERSION TERM
 = 0.5603E-02(WHEN MIN. R.F.=1)  AT K=   3, I=   2, J=  32


     1 CALLS TO GCG PACKAGE FOR TRANSPORT TIME STEP   1 IN FLOW TIME STEP  91 STRESS PERIOD   2
    10 TOTAL ITERATIONS

 NO OUTPUT CONTROL FOR STRESS PERIOD    2   TIME STEP  91
 
 SOLVING FOR HEAD 
 FLOW MODEL IS TRANSIENT
 FLOW MODEL CONTAINS CONSTANT-HEAD CELLS


 MAXIMUM STEPSIZE DURING WHICH ANY PARTICLE CANNOT MOVE MORE THAN ONE CELL
 = 0.1187    (WHEN MIN. R.F.=1)  AT K=   3, I=   2, J=  33

 MAXIMUM STEPSIZE WHICH MEETS STABILITY CRITERION OF THE ADVECTION TERM
 (FOR PURE FINITE-DIFFERENCE OPTION, MIXELM=0) 
 = 0.8135E-01(WHEN MIN. R.F.=1)  AT K=   3, I=   2, J=  32


 TOTAL NUMBER OF POINT SOURCES/SINKS PRESENT IN THE FLOW MODEL =   240

 MAXIMUM STEPSIZE WHICH MEETS STABILITY CRITERION OF THE SINK & SOURCE TERM
 = 0.1000E+31(WHEN MIN. R.F.=1)  AT K=   0, I=   0, J=   0

 MAXIMUM STEPSIZE WHICH MEETS STABILITY CRITERION OF THE DISPERSION TERM
 = 0.5603E-02(WHEN MIN. R.F.=1)  AT K=   3, I=   2, J=  32
     1 CALLS TO GCG PACKAGE FOR TRANSPORT TIME STEP   2 IN FLOW TIME STEP  91 STRESS PERIOD   2
    10 TOTAL ITERATIONS
 
 SOLVING FOR HEAD 
 FLOW MODEL IS TRANSIENT
 FLOW MODEL CONTAINS CONSTANT-HEAD CELLS


 MAXIMUM STEPSIZE DURING WHICH ANY PARTICLE CANNOT MOVE MORE THAN ONE CELL
 = 0.1187    (WHEN MIN. R.F.=1)  AT K=   3, I=   2, J=  33

 MAXIMUM STEPSIZE WHICH MEETS STABILITY CRITERION OF THE ADVECTION TERM
 (FOR PURE FINITE-DIFFERENCE OPTION, MIXELM=0) 
 = 0.8135E-01(WHEN MIN. R.F.=1)  AT K=   3, I=   2, J=  32


 TOTAL NUMBER OF POINT SOURCES/SINKS PRESENT IN THE FLOW MODEL =   240

 MAXIMUM STEPSIZE WHICH MEETS STABILITY CRITERION OF THE SINK & SOURCE TERM
 = 0.1000E+31(WHEN MIN. R.F.=1)  AT K=   0, I=   0, J=   0

 MAXIMUM STEPSIZE WHICH MEETS STABILITY CRITERION OF THE DISPERSION TERM
 = 0.5603E-02(WHEN MIN. R.F.=1)  AT K=   3, I=   2, J=  32
     1 CALLS TO GCG PACKAGE FOR TRANSPORT TIME STEP   3 IN FLOW TIME STEP  91 STRESS PERIOD   2
    10 TOTAL ITERATIONS
 
 SOLVING FOR HEAD 
 FLOW MODEL IS TRANSIENT
 FLOW MODEL CONTAINS CONSTANT-HEAD CELLS


 MAXIMUM STEPSIZE DURING WHICH ANY PARTICLE CANNOT MOVE MORE THAN ONE CELL
 = 0.1187    (WHEN MIN. R.F.=1)  AT K=   3, I=   2, J=  33

 MAXIMUM STEPSIZE WHICH MEETS STABILITY CRITERION OF THE ADVECTION TERM
 (FOR PURE FINITE-DIFFERENCE OPTION, MIXELM=0) 
 = 0.8135E-01(WHEN MIN. R.F.=1)  AT K=   3, I=   2, J=  32


 TOTAL NUMBER OF POINT SOURCES/SINKS PRESENT IN THE FLOW MODEL =   240

 MAXIMUM STEPSIZE WHICH MEETS STABILITY CRITERION OF THE SINK & SOURCE TERM
 = 0.1000E+31(WHEN MIN. R.F.=1)  AT K=   0, I=   0, J=   0

 MAXIMUM STEPSIZE WHICH MEETS STABILITY CRITERION OF THE DISPERSION TERM
 = 0.5603E-02(WHEN MIN. R.F.=1)  AT K=   3, I=   2, J=  32
     1 CALLS TO GCG PACKAGE FOR TRANSPORT TIME STEP   4 IN FLOW TIME STEP  91 STRESS PERIOD   2
    10 TOTAL ITERATIONS
 
 SOLVING FOR HEAD 
 FLOW MODEL IS TRANSIENT
 FLOW MODEL CONTAINS CONSTANT-HEAD CELLS


 MAXIMUM STEPSIZE DURING WHICH ANY PARTICLE CANNOT MOVE MORE THAN ONE CELL
 = 0.1187    (WHEN MIN. R.F.=1)  AT K=   3, I=   2, J=  33

 MAXIMUM STEPSIZE WHICH MEETS STABILITY CRITERION OF THE ADVECTION TERM
 (FOR PURE FINITE-DIFFERENCE OPTION, MIXELM=0) 
 = 0.8135E-01(WHEN MIN. R.F.=1)  AT K=   3, I=   2, J=  32


 TOTAL NUMBER OF POINT SOURCES/SINKS PRESENT IN THE FLOW MODEL =   240

 MAXIMUM STEPSIZE WHICH MEETS STABILITY CRITERION OF THE SINK & SOURCE TERM
 = 0.1000E+31(WHEN MIN. R.F.=1)  AT K=   0, I=   0, J=   0

 MAXIMUM STEPSIZE WHICH MEETS STABILITY CRITERION OF THE DISPERSION TERM
 = 0.5603E-02(WHEN MIN. R.F.=1)  AT K=   3, I=   2, J=  32
     1 CALLS TO GCG PACKAGE FOR TRANSPORT TIME STEP   5 IN FLOW TIME STEP  91 STRESS PERIOD   2
    10 TOTAL ITERATIONS
 
 SOLVING FOR HEAD 
 FLOW MODEL IS TRANSIENT
 FLOW MODEL CONTAINS CONSTANT-HEAD CELLS


 MAXIMUM STEPSIZE DURING WHICH ANY PARTICLE CANNOT MOVE MORE THAN ONE CELL
 = 0.1187    (WHEN MIN. R.F.=1)  AT K=   3, I=   2, J=  33

 MAXIMUM STEPSIZE WHICH MEETS STABILITY CRITERION OF THE ADVECTION TERM
 (FOR PURE FINITE-DIFFERENCE OPTION, MIXELM=0) 
 = 0.8135E-01(WHEN MIN. R.F.=1)  AT K=   3, I=   2, J=  32


 TOTAL NUMBER OF POINT SOURCES/SINKS PRESENT IN THE FLOW MODEL =   240

 MAXIMUM STEPSIZE WHICH MEETS STABILITY CRITERION OF THE SINK & SOURCE TERM
 = 0.1000E+31(WHEN MIN. R.F.=1)  AT K=   0, I=   0, J=   0

 MAXIMUM STEPSIZE WHICH MEETS STABILITY CRITERION OF THE DISPERSION TERM
 = 0.5603E-02(WHEN MIN. R.F.=1)  AT K=   3, I=   2, J=  32
     1 CALLS TO GCG PACKAGE FOR TRANSPORT TIME STEP   6 IN FLOW TIME STEP  91 STRESS PERIOD   2
    10 TOTAL ITERATIONS
 
 SOLVING FOR HEAD 
 FLOW MODEL IS TRANSIENT
 FLOW MODEL CONTAINS CONSTANT-HEAD CELLS


 MAXIMUM STEPSIZE DURING WHICH ANY PARTICLE CANNOT MOVE MORE THAN ONE CELL
 = 0.1187    (WHEN MIN. R.F.=1)  AT K=   3, I=   2, J=  33

 MAXIMUM STEPSIZE WHICH MEETS STABILITY CRITERION OF THE ADVECTION TERM
 (FOR PURE FINITE-DIFFERENCE OPTION, MIXELM=0) 
 = 0.8135E-01(WHEN MIN. R.F.=1)  AT K=   3, I=   2, J=  32


 TOTAL NUMBER OF POINT SOURCES/SINKS PRESENT IN THE FLOW MODEL =   240

 MAXIMUM STEPSIZE WHICH MEETS STABILITY CRITERION OF THE SINK & SOURCE TERM
 = 0.1000E+31(WHEN MIN. R.F.=1)  AT K=   0, I=   0, J=   0

 MAXIMUM STEPSIZE WHICH MEETS STABILITY CRITERION OF THE DISPERSION TERM
 = 0.5603E-02(WHEN MIN. R.F.=1)  AT K=   3, I=   2, J=  32
     1 CALLS TO GCG PACKAGE FOR TRANSPORT TIME STEP   7 IN FLOW TIME STEP  91 STRESS PERIOD   2
    10 TOTAL ITERATIONS
 
 SOLVING FOR HEAD 
 FLOW MODEL IS TRANSIENT
 FLOW MODEL CONTAINS CONSTANT-HEAD CELLS


 MAXIMUM STEPSIZE DURING WHICH ANY PARTICLE CANNOT MOVE MORE THAN ONE CELL
 = 0.1187    (WHEN MIN. R.F.=1)  AT K=   3, I=   2, J=  33

 MAXIMUM STEPSIZE WHICH MEETS STABILITY CRITERION OF THE ADVECTION TERM
 (FOR PURE FINITE-DIFFERENCE OPTION, MIXELM=0) 
 = 0.8135E-01(WHEN MIN. R.F.=1)  AT K=   3, I=   2, J=  32


 TOTAL NUMBER OF POINT SOURCES/SINKS PRESENT IN THE FLOW MODEL =   240

 MAXIMUM STEPSIZE WHICH MEETS STABILITY CRITERION OF THE SINK & SOURCE TERM
 = 0.1000E+31(WHEN MIN. R.F.=1)  AT K=   0, I=   0, J=   0

 MAXIMUM STEPSIZE WHICH MEETS STABILITY CRITERION OF THE DISPERSION TERM
 = 0.5603E-02(WHEN MIN. R.F.=1)  AT K=   3, I=   2, J=  32
     1 CALLS TO GCG PACKAGE FOR TRANSPORT TIME STEP   8 IN FLOW TIME STEP  91 STRESS PERIOD   2
    10 TOTAL ITERATIONS
 
 SOLVING FOR HEAD 
 FLOW MODEL IS TRANSIENT
 FLOW MODEL CONTAINS CONSTANT-HEAD CELLS


 MAXIMUM STEPSIZE DURING WHICH ANY PARTICLE CANNOT MOVE MORE THAN ONE CELL
 = 0.1187    (WHEN MIN. R.F.=1)  AT K=   3, I=   2, J=  33

 MAXIMUM STEPSIZE WHICH MEETS STABILITY CRITERION OF THE ADVECTION TERM
 (FOR PURE FINITE-DIFFERENCE OPTION, MIXELM=0) 
 = 0.8135E-01(WHEN MIN. R.F.=1)  AT K=   3, I=   2, J=  32


 TOTAL NUMBER OF POINT SOURCES/SINKS PRESENT IN THE FLOW MODEL =   240

 MAXIMUM STEPSIZE WHICH MEETS STABILITY CRITERION OF THE SINK & SOURCE TERM
 = 0.1000E+31(WHEN MIN. R.F.=1)  AT K=   0, I=   0, J=   0

 MAXIMUM STEPSIZE WHICH MEETS STABILITY CRITERION OF THE DISPERSION TERM
 = 0.5603E-02(WHEN MIN. R.F.=1)  AT K=   3, I=   2, J=  32
     1 CALLS TO GCG PACKAGE FOR TRANSPORT TIME STEP   9 IN FLOW TIME STEP  91 STRESS PERIOD   2
    10 TOTAL ITERATIONS
 
 SOLVING FOR HEAD 
 FLOW MODEL IS TRANSIENT
 FLOW MODEL CONTAINS CONSTANT-HEAD CELLS


 MAXIMUM STEPSIZE DURING WHICH ANY PARTICLE CANNOT MOVE MORE THAN ONE CELL
 = 0.1187    (WHEN MIN. R.F.=1)  AT K=   3, I=   2, J=  33

 MAXIMUM STEPSIZE WHICH MEETS STABILITY CRITERION OF THE ADVECTION TERM
 (FOR PURE FINITE-DIFFERENCE OPTION, MIXELM=0) 
 = 0.8135E-01(WHEN MIN. R.F.=1)  AT K=   3, I=   2, J=  32


 TOTAL NUMBER OF POINT SOURCES/SINKS PRESENT IN THE FLOW MODEL =   240

 MAXIMUM STEPSIZE WHICH MEETS STABILITY CRITERION OF THE SINK & SOURCE TERM
 = 0.1000E+31(WHEN MIN. R.F.=1)  AT K=   0, I=   0, J=   0

 MAXIMUM STEPSIZE WHICH MEETS STABILITY CRITERION OF THE DISPERSION TERM
 = 0.5603E-02(WHEN MIN. R.F.=1)  AT K=   3, I=   2, J=  32
     1 CALLS TO GCG PACKAGE FOR TRANSPORT TIME STEP  10 IN FLOW TIME STEP  91 STRESS PERIOD   2
    10 TOTAL ITERATIONS



 >>>>>>>>>>>>>>>>>>>>>>>>>>>>>>>>>>>>>>>>>>>>>>>>>>>>>>>FOR COMPONENT NO. 01<<<<<<<<<<<<<<<<<<<<<<<<<<<<<<<<<<<<<<<<<<<<<<<<<<<<<<<


                                            -------------------------------------------
                                                      TRANSPORT STEP NO.   10
                                            -------------------------------------------

 TOTAL ELAPSED TIME SINCE BEGINNING OF SIMULATION =   91.89016    D   
 .....................................................................

                     CUMULATIVE MASS BUDGETS AT END OF TRANSPORT STEP   10, TIME STEP   91, STRESS PERIOD    2
                     ------------------------------------------------------------------------------------------

                                                             IN                           OUT
                                                      ----------------             ----------------
                               CONSTANT CONCENTRATION:    13148.99                   -8149.706    
                                        CONSTANT HEAD:    0.000000                    0.000000    
                               MASS STOR (FLOW MODEL):   0.1321968E-01              -0.3443054E-02
                                MASS STORAGE (SOLUTE):    11.42302                   -5010.720    
                            ---------------------------------------------------------------------------
                                              [TOTAL]:    13160.43     KG            -13160.43     KG  

                                                          NET (IN - OUT):  -0.2349430E-02
                                                   DISCREPANCY (PERCENT):  -0.1785223E-04
 
 SOLVING FOR HEAD 
 FLOW MODEL IS TRANSIENT
 FLOW MODEL CONTAINS CONSTANT-HEAD CELLS


 MAXIMUM STEPSIZE DURING WHICH ANY PARTICLE CANNOT MOVE MORE THAN ONE CELL
 = 0.1187    (WHEN MIN. R.F.=1)  AT K=   3, I=   2, J=  33

 MAXIMUM STEPSIZE WHICH MEETS STABILITY CRITERION OF THE ADVECTION TERM
 (FOR PURE FINITE-DIFFERENCE OPTION, MIXELM=0) 
 = 0.8135E-01(WHEN MIN. R.F.=1)  AT K=   3, I=   2, J=  32


 TOTAL NUMBER OF POINT SOURCES/SINKS PRESENT IN THE FLOW MODEL =   240

 MAXIMUM STEPSIZE WHICH MEETS STABILITY CRITERION OF THE SINK & SOURCE TERM
 = 0.1000E+31(WHEN MIN. R.F.=1)  AT K=   0, I=   0, J=   0

 MAXIMUM STEPSIZE WHICH MEETS STABILITY CRITERION OF THE DISPERSION TERM
 = 0.5603E-02(WHEN MIN. R.F.=1)  AT K=   3, I=   2, J=  32
     1 CALLS TO GCG PACKAGE FOR TRANSPORT TIME STEP  11 IN FLOW TIME STEP  91 STRESS PERIOD   2
    10 TOTAL ITERATIONS
 
 SOLVING FOR HEAD 
 FLOW MODEL IS TRANSIENT
 FLOW MODEL CONTAINS CONSTANT-HEAD CELLS


 MAXIMUM STEPSIZE DURING WHICH ANY PARTICLE CANNOT MOVE MORE THAN ONE CELL
 = 0.1187    (WHEN MIN. R.F.=1)  AT K=   3, I=   2, J=  33

 MAXIMUM STEPSIZE WHICH MEETS STABILITY CRITERION OF THE ADVECTION TERM
 (FOR PURE FINITE-DIFFERENCE OPTION, MIXELM=0) 
 = 0.8135E-01(WHEN MIN. R.F.=1)  AT K=   3, I=   2, J=  32


 TOTAL NUMBER OF POINT SOURCES/SINKS PRESENT IN THE FLOW MODEL =   240

 MAXIMUM STEPSIZE WHICH MEETS STABILITY CRITERION OF THE SINK & SOURCE TERM
 = 0.1000E+31(WHEN MIN. R.F.=1)  AT K=   0, I=   0, J=   0

 MAXIMUM STEPSIZE WHICH MEETS STABILITY CRITERION OF THE DISPERSION TERM
 = 0.5603E-02(WHEN MIN. R.F.=1)  AT K=   3, I=   2, J=  32
     1 CALLS TO GCG PACKAGE FOR TRANSPORT TIME STEP  12 IN FLOW TIME STEP  91 STRESS PERIOD   2
     4 TOTAL ITERATIONS
  MAXIMUM CONCENTRATION CHANGES FOR EACH ITERATION:
  MAX. CHANGE LAYER,ROW,COL MAX. CHANGE LAYER,ROW,COL MAX. CHANGE LAYER,ROW,COL MAX. CHANGE LAYER,ROW,COL MAX. CHANGE LAYER,ROW,COL
 ------------------------------------------------------------------------------------------------------------------------------------
   0.1209E-03 ( 16,  2, 53)  0.4350E-05 (  6,  2, 61)  0.6162E-06 (  5,  2, 57)  0.9037E-07 (  7,  2, 61)


                                          ================================================
                                                         FROM TIME =   92.000     TO    93.000    

 
 SOLVING FOR HEAD 
 FLOW MODEL IS TRANSIENT
 FLOW MODEL CONTAINS CONSTANT-HEAD CELLS


 MAXIMUM STEPSIZE DURING WHICH ANY PARTICLE CANNOT MOVE MORE THAN ONE CELL
 = 0.1187    (WHEN MIN. R.F.=1)  AT K=   3, I=   2, J=  33

 MAXIMUM STEPSIZE WHICH MEETS STABILITY CRITERION OF THE ADVECTION TERM
 (FOR PURE FINITE-DIFFERENCE OPTION, MIXELM=0) 
 = 0.8135E-01(WHEN MIN. R.F.=1)  AT K=   3, I=   2, J=  32


 TOTAL NUMBER OF POINT SOURCES/SINKS PRESENT IN THE FLOW MODEL =   240

 MAXIMUM STEPSIZE WHICH MEETS STABILITY CRITERION OF THE SINK & SOURCE TERM
 = 0.1000E+31(WHEN MIN. R.F.=1)  AT K=   0, I=   0, J=   0

 MAXIMUM STEPSIZE WHICH MEETS STABILITY CRITERION OF THE DISPERSION TERM
 = 0.5603E-02(WHEN MIN. R.F.=1)  AT K=   3, I=   2, J=  32


     1 CALLS TO GCG PACKAGE FOR TRANSPORT TIME STEP   1 IN FLOW TIME STEP  92 STRESS PERIOD   2
    10 TOTAL ITERATIONS

 NO OUTPUT CONTROL FOR STRESS PERIOD    2   TIME STEP  92
 
 SOLVING FOR HEAD 
 FLOW MODEL IS TRANSIENT
 FLOW MODEL CONTAINS CONSTANT-HEAD CELLS


 MAXIMUM STEPSIZE DURING WHICH ANY PARTICLE CANNOT MOVE MORE THAN ONE CELL
 = 0.1187    (WHEN MIN. R.F.=1)  AT K=   3, I=   2, J=  33

 MAXIMUM STEPSIZE WHICH MEETS STABILITY CRITERION OF THE ADVECTION TERM
 (FOR PURE FINITE-DIFFERENCE OPTION, MIXELM=0) 
 = 0.8135E-01(WHEN MIN. R.F.=1)  AT K=   3, I=   2, J=  32


 TOTAL NUMBER OF POINT SOURCES/SINKS PRESENT IN THE FLOW MODEL =   240

 MAXIMUM STEPSIZE WHICH MEETS STABILITY CRITERION OF THE SINK & SOURCE TERM
 = 0.1000E+31(WHEN MIN. R.F.=1)  AT K=   0, I=   0, J=   0

 MAXIMUM STEPSIZE WHICH MEETS STABILITY CRITERION OF THE DISPERSION TERM
 = 0.5603E-02(WHEN MIN. R.F.=1)  AT K=   3, I=   2, J=  32
     1 CALLS TO GCG PACKAGE FOR TRANSPORT TIME STEP   2 IN FLOW TIME STEP  92 STRESS PERIOD   2
    10 TOTAL ITERATIONS
 
 SOLVING FOR HEAD 
 FLOW MODEL IS TRANSIENT
 FLOW MODEL CONTAINS CONSTANT-HEAD CELLS


 MAXIMUM STEPSIZE DURING WHICH ANY PARTICLE CANNOT MOVE MORE THAN ONE CELL
 = 0.1187    (WHEN MIN. R.F.=1)  AT K=   3, I=   2, J=  33

 MAXIMUM STEPSIZE WHICH MEETS STABILITY CRITERION OF THE ADVECTION TERM
 (FOR PURE FINITE-DIFFERENCE OPTION, MIXELM=0) 
 = 0.8135E-01(WHEN MIN. R.F.=1)  AT K=   3, I=   2, J=  32


 TOTAL NUMBER OF POINT SOURCES/SINKS PRESENT IN THE FLOW MODEL =   240

 MAXIMUM STEPSIZE WHICH MEETS STABILITY CRITERION OF THE SINK & SOURCE TERM
 = 0.1000E+31(WHEN MIN. R.F.=1)  AT K=   0, I=   0, J=   0

 MAXIMUM STEPSIZE WHICH MEETS STABILITY CRITERION OF THE DISPERSION TERM
 = 0.5603E-02(WHEN MIN. R.F.=1)  AT K=   3, I=   2, J=  32
     1 CALLS TO GCG PACKAGE FOR TRANSPORT TIME STEP   3 IN FLOW TIME STEP  92 STRESS PERIOD   2
    10 TOTAL ITERATIONS
 
 SOLVING FOR HEAD 
 FLOW MODEL IS TRANSIENT
 FLOW MODEL CONTAINS CONSTANT-HEAD CELLS


 MAXIMUM STEPSIZE DURING WHICH ANY PARTICLE CANNOT MOVE MORE THAN ONE CELL
 = 0.1187    (WHEN MIN. R.F.=1)  AT K=   3, I=   2, J=  33

 MAXIMUM STEPSIZE WHICH MEETS STABILITY CRITERION OF THE ADVECTION TERM
 (FOR PURE FINITE-DIFFERENCE OPTION, MIXELM=0) 
 = 0.8135E-01(WHEN MIN. R.F.=1)  AT K=   3, I=   2, J=  32


 TOTAL NUMBER OF POINT SOURCES/SINKS PRESENT IN THE FLOW MODEL =   240

 MAXIMUM STEPSIZE WHICH MEETS STABILITY CRITERION OF THE SINK & SOURCE TERM
 = 0.1000E+31(WHEN MIN. R.F.=1)  AT K=   0, I=   0, J=   0

 MAXIMUM STEPSIZE WHICH MEETS STABILITY CRITERION OF THE DISPERSION TERM
 = 0.5603E-02(WHEN MIN. R.F.=1)  AT K=   3, I=   2, J=  32
     1 CALLS TO GCG PACKAGE FOR TRANSPORT TIME STEP   4 IN FLOW TIME STEP  92 STRESS PERIOD   2
    10 TOTAL ITERATIONS
 
 SOLVING FOR HEAD 
 FLOW MODEL IS TRANSIENT
 FLOW MODEL CONTAINS CONSTANT-HEAD CELLS


 MAXIMUM STEPSIZE DURING WHICH ANY PARTICLE CANNOT MOVE MORE THAN ONE CELL
 = 0.1187    (WHEN MIN. R.F.=1)  AT K=   3, I=   2, J=  33

 MAXIMUM STEPSIZE WHICH MEETS STABILITY CRITERION OF THE ADVECTION TERM
 (FOR PURE FINITE-DIFFERENCE OPTION, MIXELM=0) 
 = 0.8135E-01(WHEN MIN. R.F.=1)  AT K=   3, I=   2, J=  32


 TOTAL NUMBER OF POINT SOURCES/SINKS PRESENT IN THE FLOW MODEL =   240

 MAXIMUM STEPSIZE WHICH MEETS STABILITY CRITERION OF THE SINK & SOURCE TERM
 = 0.1000E+31(WHEN MIN. R.F.=1)  AT K=   0, I=   0, J=   0

 MAXIMUM STEPSIZE WHICH MEETS STABILITY CRITERION OF THE DISPERSION TERM
 = 0.5603E-02(WHEN MIN. R.F.=1)  AT K=   3, I=   2, J=  32
     1 CALLS TO GCG PACKAGE FOR TRANSPORT TIME STEP   5 IN FLOW TIME STEP  92 STRESS PERIOD   2
    10 TOTAL ITERATIONS
 
 SOLVING FOR HEAD 
 FLOW MODEL IS TRANSIENT
 FLOW MODEL CONTAINS CONSTANT-HEAD CELLS


 MAXIMUM STEPSIZE DURING WHICH ANY PARTICLE CANNOT MOVE MORE THAN ONE CELL
 = 0.1187    (WHEN MIN. R.F.=1)  AT K=   3, I=   2, J=  33

 MAXIMUM STEPSIZE WHICH MEETS STABILITY CRITERION OF THE ADVECTION TERM
 (FOR PURE FINITE-DIFFERENCE OPTION, MIXELM=0) 
 = 0.8135E-01(WHEN MIN. R.F.=1)  AT K=   3, I=   2, J=  32


 TOTAL NUMBER OF POINT SOURCES/SINKS PRESENT IN THE FLOW MODEL =   240

 MAXIMUM STEPSIZE WHICH MEETS STABILITY CRITERION OF THE SINK & SOURCE TERM
 = 0.1000E+31(WHEN MIN. R.F.=1)  AT K=   0, I=   0, J=   0

 MAXIMUM STEPSIZE WHICH MEETS STABILITY CRITERION OF THE DISPERSION TERM
 = 0.5603E-02(WHEN MIN. R.F.=1)  AT K=   3, I=   2, J=  32
     1 CALLS TO GCG PACKAGE FOR TRANSPORT TIME STEP   6 IN FLOW TIME STEP  92 STRESS PERIOD   2
    10 TOTAL ITERATIONS
 
 SOLVING FOR HEAD 
 FLOW MODEL IS TRANSIENT
 FLOW MODEL CONTAINS CONSTANT-HEAD CELLS


 MAXIMUM STEPSIZE DURING WHICH ANY PARTICLE CANNOT MOVE MORE THAN ONE CELL
 = 0.1187    (WHEN MIN. R.F.=1)  AT K=   3, I=   2, J=  33

 MAXIMUM STEPSIZE WHICH MEETS STABILITY CRITERION OF THE ADVECTION TERM
 (FOR PURE FINITE-DIFFERENCE OPTION, MIXELM=0) 
 = 0.8135E-01(WHEN MIN. R.F.=1)  AT K=   3, I=   2, J=  32


 TOTAL NUMBER OF POINT SOURCES/SINKS PRESENT IN THE FLOW MODEL =   240

 MAXIMUM STEPSIZE WHICH MEETS STABILITY CRITERION OF THE SINK & SOURCE TERM
 = 0.1000E+31(WHEN MIN. R.F.=1)  AT K=   0, I=   0, J=   0

 MAXIMUM STEPSIZE WHICH MEETS STABILITY CRITERION OF THE DISPERSION TERM
 = 0.5603E-02(WHEN MIN. R.F.=1)  AT K=   3, I=   2, J=  32
     1 CALLS TO GCG PACKAGE FOR TRANSPORT TIME STEP   7 IN FLOW TIME STEP  92 STRESS PERIOD   2
    10 TOTAL ITERATIONS
 
 SOLVING FOR HEAD 
 FLOW MODEL IS TRANSIENT
 FLOW MODEL CONTAINS CONSTANT-HEAD CELLS


 MAXIMUM STEPSIZE DURING WHICH ANY PARTICLE CANNOT MOVE MORE THAN ONE CELL
 = 0.1187    (WHEN MIN. R.F.=1)  AT K=   3, I=   2, J=  33

 MAXIMUM STEPSIZE WHICH MEETS STABILITY CRITERION OF THE ADVECTION TERM
 (FOR PURE FINITE-DIFFERENCE OPTION, MIXELM=0) 
 = 0.8135E-01(WHEN MIN. R.F.=1)  AT K=   3, I=   2, J=  32


 TOTAL NUMBER OF POINT SOURCES/SINKS PRESENT IN THE FLOW MODEL =   240

 MAXIMUM STEPSIZE WHICH MEETS STABILITY CRITERION OF THE SINK & SOURCE TERM
 = 0.1000E+31(WHEN MIN. R.F.=1)  AT K=   0, I=   0, J=   0

 MAXIMUM STEPSIZE WHICH MEETS STABILITY CRITERION OF THE DISPERSION TERM
 = 0.5603E-02(WHEN MIN. R.F.=1)  AT K=   3, I=   2, J=  32
     1 CALLS TO GCG PACKAGE FOR TRANSPORT TIME STEP   8 IN FLOW TIME STEP  92 STRESS PERIOD   2
    10 TOTAL ITERATIONS
 
 SOLVING FOR HEAD 
 FLOW MODEL IS TRANSIENT
 FLOW MODEL CONTAINS CONSTANT-HEAD CELLS


 MAXIMUM STEPSIZE DURING WHICH ANY PARTICLE CANNOT MOVE MORE THAN ONE CELL
 = 0.1187    (WHEN MIN. R.F.=1)  AT K=   3, I=   2, J=  33

 MAXIMUM STEPSIZE WHICH MEETS STABILITY CRITERION OF THE ADVECTION TERM
 (FOR PURE FINITE-DIFFERENCE OPTION, MIXELM=0) 
 = 0.8135E-01(WHEN MIN. R.F.=1)  AT K=   3, I=   2, J=  32


 TOTAL NUMBER OF POINT SOURCES/SINKS PRESENT IN THE FLOW MODEL =   240

 MAXIMUM STEPSIZE WHICH MEETS STABILITY CRITERION OF THE SINK & SOURCE TERM
 = 0.1000E+31(WHEN MIN. R.F.=1)  AT K=   0, I=   0, J=   0

 MAXIMUM STEPSIZE WHICH MEETS STABILITY CRITERION OF THE DISPERSION TERM
 = 0.5603E-02(WHEN MIN. R.F.=1)  AT K=   3, I=   2, J=  32
     1 CALLS TO GCG PACKAGE FOR TRANSPORT TIME STEP   9 IN FLOW TIME STEP  92 STRESS PERIOD   2
     9 TOTAL ITERATIONS
 
 SOLVING FOR HEAD 
 FLOW MODEL IS TRANSIENT
 FLOW MODEL CONTAINS CONSTANT-HEAD CELLS


 MAXIMUM STEPSIZE DURING WHICH ANY PARTICLE CANNOT MOVE MORE THAN ONE CELL
 = 0.1187    (WHEN MIN. R.F.=1)  AT K=   3, I=   2, J=  33

 MAXIMUM STEPSIZE WHICH MEETS STABILITY CRITERION OF THE ADVECTION TERM
 (FOR PURE FINITE-DIFFERENCE OPTION, MIXELM=0) 
 = 0.8135E-01(WHEN MIN. R.F.=1)  AT K=   3, I=   2, J=  32


 TOTAL NUMBER OF POINT SOURCES/SINKS PRESENT IN THE FLOW MODEL =   240

 MAXIMUM STEPSIZE WHICH MEETS STABILITY CRITERION OF THE SINK & SOURCE TERM
 = 0.1000E+31(WHEN MIN. R.F.=1)  AT K=   0, I=   0, J=   0

 MAXIMUM STEPSIZE WHICH MEETS STABILITY CRITERION OF THE DISPERSION TERM
 = 0.5603E-02(WHEN MIN. R.F.=1)  AT K=   3, I=   2, J=  32
     1 CALLS TO GCG PACKAGE FOR TRANSPORT TIME STEP  10 IN FLOW TIME STEP  92 STRESS PERIOD   2
    10 TOTAL ITERATIONS



 >>>>>>>>>>>>>>>>>>>>>>>>>>>>>>>>>>>>>>>>>>>>>>>>>>>>>>>FOR COMPONENT NO. 01<<<<<<<<<<<<<<<<<<<<<<<<<<<<<<<<<<<<<<<<<<<<<<<<<<<<<<<


                                            -------------------------------------------
                                                      TRANSPORT STEP NO.   10
                                            -------------------------------------------

 TOTAL ELAPSED TIME SINCE BEGINNING OF SIMULATION =   92.89015    D   
 .....................................................................

                     CUMULATIVE MASS BUDGETS AT END OF TRANSPORT STEP   10, TIME STEP   92, STRESS PERIOD    2
                     ------------------------------------------------------------------------------------------

                                                             IN                           OUT
                                                      ----------------             ----------------
                               CONSTANT CONCENTRATION:    13252.66                   -8242.768    
                                        CONSTANT HEAD:    0.000000                    0.000000    
                               MASS STOR (FLOW MODEL):   0.1323263E-01              -0.3444610E-02
                                MASS STORAGE (SOLUTE):    11.55977                   -5021.464    
                            ---------------------------------------------------------------------------
                                              [TOTAL]:    13264.23     KG            -13264.24     KG  

                                                          NET (IN - OUT):  -0.2195125E-02
                                                   DISCREPANCY (PERCENT):  -0.1654920E-04
 
 SOLVING FOR HEAD 
 FLOW MODEL IS TRANSIENT
 FLOW MODEL CONTAINS CONSTANT-HEAD CELLS


 MAXIMUM STEPSIZE DURING WHICH ANY PARTICLE CANNOT MOVE MORE THAN ONE CELL
 = 0.1187    (WHEN MIN. R.F.=1)  AT K=   3, I=   2, J=  33

 MAXIMUM STEPSIZE WHICH MEETS STABILITY CRITERION OF THE ADVECTION TERM
 (FOR PURE FINITE-DIFFERENCE OPTION, MIXELM=0) 
 = 0.8135E-01(WHEN MIN. R.F.=1)  AT K=   3, I=   2, J=  32


 TOTAL NUMBER OF POINT SOURCES/SINKS PRESENT IN THE FLOW MODEL =   240

 MAXIMUM STEPSIZE WHICH MEETS STABILITY CRITERION OF THE SINK & SOURCE TERM
 = 0.1000E+31(WHEN MIN. R.F.=1)  AT K=   0, I=   0, J=   0

 MAXIMUM STEPSIZE WHICH MEETS STABILITY CRITERION OF THE DISPERSION TERM
 = 0.5603E-02(WHEN MIN. R.F.=1)  AT K=   3, I=   2, J=  32
     1 CALLS TO GCG PACKAGE FOR TRANSPORT TIME STEP  11 IN FLOW TIME STEP  92 STRESS PERIOD   2
     9 TOTAL ITERATIONS
 
 SOLVING FOR HEAD 
 FLOW MODEL IS TRANSIENT
 FLOW MODEL CONTAINS CONSTANT-HEAD CELLS


 MAXIMUM STEPSIZE DURING WHICH ANY PARTICLE CANNOT MOVE MORE THAN ONE CELL
 = 0.1187    (WHEN MIN. R.F.=1)  AT K=   3, I=   2, J=  33

 MAXIMUM STEPSIZE WHICH MEETS STABILITY CRITERION OF THE ADVECTION TERM
 (FOR PURE FINITE-DIFFERENCE OPTION, MIXELM=0) 
 = 0.8135E-01(WHEN MIN. R.F.=1)  AT K=   3, I=   2, J=  32


 TOTAL NUMBER OF POINT SOURCES/SINKS PRESENT IN THE FLOW MODEL =   240

 MAXIMUM STEPSIZE WHICH MEETS STABILITY CRITERION OF THE SINK & SOURCE TERM
 = 0.1000E+31(WHEN MIN. R.F.=1)  AT K=   0, I=   0, J=   0

 MAXIMUM STEPSIZE WHICH MEETS STABILITY CRITERION OF THE DISPERSION TERM
 = 0.5603E-02(WHEN MIN. R.F.=1)  AT K=   3, I=   2, J=  32
     1 CALLS TO GCG PACKAGE FOR TRANSPORT TIME STEP  12 IN FLOW TIME STEP  92 STRESS PERIOD   2
     4 TOTAL ITERATIONS
  MAXIMUM CONCENTRATION CHANGES FOR EACH ITERATION:
  MAX. CHANGE LAYER,ROW,COL MAX. CHANGE LAYER,ROW,COL MAX. CHANGE LAYER,ROW,COL MAX. CHANGE LAYER,ROW,COL MAX. CHANGE LAYER,ROW,COL
 ------------------------------------------------------------------------------------------------------------------------------------
   0.1194E-03 ( 16,  2, 53)  0.4246E-05 (  6,  2, 61)  0.6009E-06 (  5,  2, 57)  0.8492E-07 (  7,  2, 61)


                                          ================================================
                                                         FROM TIME =   93.000     TO    94.000    

 
 SOLVING FOR HEAD 
 FLOW MODEL IS TRANSIENT
 FLOW MODEL CONTAINS CONSTANT-HEAD CELLS


 MAXIMUM STEPSIZE DURING WHICH ANY PARTICLE CANNOT MOVE MORE THAN ONE CELL
 = 0.1187    (WHEN MIN. R.F.=1)  AT K=   3, I=   2, J=  33

 MAXIMUM STEPSIZE WHICH MEETS STABILITY CRITERION OF THE ADVECTION TERM
 (FOR PURE FINITE-DIFFERENCE OPTION, MIXELM=0) 
 = 0.8135E-01(WHEN MIN. R.F.=1)  AT K=   3, I=   2, J=  32


 TOTAL NUMBER OF POINT SOURCES/SINKS PRESENT IN THE FLOW MODEL =   240

 MAXIMUM STEPSIZE WHICH MEETS STABILITY CRITERION OF THE SINK & SOURCE TERM
 = 0.1000E+31(WHEN MIN. R.F.=1)  AT K=   0, I=   0, J=   0

 MAXIMUM STEPSIZE WHICH MEETS STABILITY CRITERION OF THE DISPERSION TERM
 = 0.5603E-02(WHEN MIN. R.F.=1)  AT K=   3, I=   2, J=  32


     1 CALLS TO GCG PACKAGE FOR TRANSPORT TIME STEP   1 IN FLOW TIME STEP  93 STRESS PERIOD   2
    10 TOTAL ITERATIONS

 NO OUTPUT CONTROL FOR STRESS PERIOD    2   TIME STEP  93
 
 SOLVING FOR HEAD 
 FLOW MODEL IS TRANSIENT
 FLOW MODEL CONTAINS CONSTANT-HEAD CELLS


 MAXIMUM STEPSIZE DURING WHICH ANY PARTICLE CANNOT MOVE MORE THAN ONE CELL
 = 0.1187    (WHEN MIN. R.F.=1)  AT K=   3, I=   2, J=  33

 MAXIMUM STEPSIZE WHICH MEETS STABILITY CRITERION OF THE ADVECTION TERM
 (FOR PURE FINITE-DIFFERENCE OPTION, MIXELM=0) 
 = 0.8135E-01(WHEN MIN. R.F.=1)  AT K=   3, I=   2, J=  32


 TOTAL NUMBER OF POINT SOURCES/SINKS PRESENT IN THE FLOW MODEL =   240

 MAXIMUM STEPSIZE WHICH MEETS STABILITY CRITERION OF THE SINK & SOURCE TERM
 = 0.1000E+31(WHEN MIN. R.F.=1)  AT K=   0, I=   0, J=   0

 MAXIMUM STEPSIZE WHICH MEETS STABILITY CRITERION OF THE DISPERSION TERM
 = 0.5603E-02(WHEN MIN. R.F.=1)  AT K=   3, I=   2, J=  32
     1 CALLS TO GCG PACKAGE FOR TRANSPORT TIME STEP   2 IN FLOW TIME STEP  93 STRESS PERIOD   2
     9 TOTAL ITERATIONS
 
 SOLVING FOR HEAD 
 FLOW MODEL IS TRANSIENT
 FLOW MODEL CONTAINS CONSTANT-HEAD CELLS


 MAXIMUM STEPSIZE DURING WHICH ANY PARTICLE CANNOT MOVE MORE THAN ONE CELL
 = 0.1187    (WHEN MIN. R.F.=1)  AT K=   3, I=   2, J=  33

 MAXIMUM STEPSIZE WHICH MEETS STABILITY CRITERION OF THE ADVECTION TERM
 (FOR PURE FINITE-DIFFERENCE OPTION, MIXELM=0) 
 = 0.8135E-01(WHEN MIN. R.F.=1)  AT K=   3, I=   2, J=  32


 TOTAL NUMBER OF POINT SOURCES/SINKS PRESENT IN THE FLOW MODEL =   240

 MAXIMUM STEPSIZE WHICH MEETS STABILITY CRITERION OF THE SINK & SOURCE TERM
 = 0.1000E+31(WHEN MIN. R.F.=1)  AT K=   0, I=   0, J=   0

 MAXIMUM STEPSIZE WHICH MEETS STABILITY CRITERION OF THE DISPERSION TERM
 = 0.5603E-02(WHEN MIN. R.F.=1)  AT K=   3, I=   2, J=  32
     1 CALLS TO GCG PACKAGE FOR TRANSPORT TIME STEP   3 IN FLOW TIME STEP  93 STRESS PERIOD   2
    10 TOTAL ITERATIONS
 
 SOLVING FOR HEAD 
 FLOW MODEL IS TRANSIENT
 FLOW MODEL CONTAINS CONSTANT-HEAD CELLS


 MAXIMUM STEPSIZE DURING WHICH ANY PARTICLE CANNOT MOVE MORE THAN ONE CELL
 = 0.1187    (WHEN MIN. R.F.=1)  AT K=   3, I=   2, J=  33

 MAXIMUM STEPSIZE WHICH MEETS STABILITY CRITERION OF THE ADVECTION TERM
 (FOR PURE FINITE-DIFFERENCE OPTION, MIXELM=0) 
 = 0.8135E-01(WHEN MIN. R.F.=1)  AT K=   3, I=   2, J=  32


 TOTAL NUMBER OF POINT SOURCES/SINKS PRESENT IN THE FLOW MODEL =   240

 MAXIMUM STEPSIZE WHICH MEETS STABILITY CRITERION OF THE SINK & SOURCE TERM
 = 0.1000E+31(WHEN MIN. R.F.=1)  AT K=   0, I=   0, J=   0

 MAXIMUM STEPSIZE WHICH MEETS STABILITY CRITERION OF THE DISPERSION TERM
 = 0.5603E-02(WHEN MIN. R.F.=1)  AT K=   3, I=   2, J=  32
     1 CALLS TO GCG PACKAGE FOR TRANSPORT TIME STEP   4 IN FLOW TIME STEP  93 STRESS PERIOD   2
     9 TOTAL ITERATIONS
 
 SOLVING FOR HEAD 
 FLOW MODEL IS TRANSIENT
 FLOW MODEL CONTAINS CONSTANT-HEAD CELLS


 MAXIMUM STEPSIZE DURING WHICH ANY PARTICLE CANNOT MOVE MORE THAN ONE CELL
 = 0.1187    (WHEN MIN. R.F.=1)  AT K=   3, I=   2, J=  33

 MAXIMUM STEPSIZE WHICH MEETS STABILITY CRITERION OF THE ADVECTION TERM
 (FOR PURE FINITE-DIFFERENCE OPTION, MIXELM=0) 
 = 0.8135E-01(WHEN MIN. R.F.=1)  AT K=   3, I=   2, J=  32


 TOTAL NUMBER OF POINT SOURCES/SINKS PRESENT IN THE FLOW MODEL =   240

 MAXIMUM STEPSIZE WHICH MEETS STABILITY CRITERION OF THE SINK & SOURCE TERM
 = 0.1000E+31(WHEN MIN. R.F.=1)  AT K=   0, I=   0, J=   0

 MAXIMUM STEPSIZE WHICH MEETS STABILITY CRITERION OF THE DISPERSION TERM
 = 0.5603E-02(WHEN MIN. R.F.=1)  AT K=   3, I=   2, J=  32
     1 CALLS TO GCG PACKAGE FOR TRANSPORT TIME STEP   5 IN FLOW TIME STEP  93 STRESS PERIOD   2
    10 TOTAL ITERATIONS
 
 SOLVING FOR HEAD 
 FLOW MODEL IS TRANSIENT
 FLOW MODEL CONTAINS CONSTANT-HEAD CELLS


 MAXIMUM STEPSIZE DURING WHICH ANY PARTICLE CANNOT MOVE MORE THAN ONE CELL
 = 0.1187    (WHEN MIN. R.F.=1)  AT K=   3, I=   2, J=  33

 MAXIMUM STEPSIZE WHICH MEETS STABILITY CRITERION OF THE ADVECTION TERM
 (FOR PURE FINITE-DIFFERENCE OPTION, MIXELM=0) 
 = 0.8135E-01(WHEN MIN. R.F.=1)  AT K=   3, I=   2, J=  32


 TOTAL NUMBER OF POINT SOURCES/SINKS PRESENT IN THE FLOW MODEL =   240

 MAXIMUM STEPSIZE WHICH MEETS STABILITY CRITERION OF THE SINK & SOURCE TERM
 = 0.1000E+31(WHEN MIN. R.F.=1)  AT K=   0, I=   0, J=   0

 MAXIMUM STEPSIZE WHICH MEETS STABILITY CRITERION OF THE DISPERSION TERM
 = 0.5603E-02(WHEN MIN. R.F.=1)  AT K=   3, I=   2, J=  32
     1 CALLS TO GCG PACKAGE FOR TRANSPORT TIME STEP   6 IN FLOW TIME STEP  93 STRESS PERIOD   2
     9 TOTAL ITERATIONS
 
 SOLVING FOR HEAD 
 FLOW MODEL IS TRANSIENT
 FLOW MODEL CONTAINS CONSTANT-HEAD CELLS


 MAXIMUM STEPSIZE DURING WHICH ANY PARTICLE CANNOT MOVE MORE THAN ONE CELL
 = 0.1187    (WHEN MIN. R.F.=1)  AT K=   3, I=   2, J=  33

 MAXIMUM STEPSIZE WHICH MEETS STABILITY CRITERION OF THE ADVECTION TERM
 (FOR PURE FINITE-DIFFERENCE OPTION, MIXELM=0) 
 = 0.8135E-01(WHEN MIN. R.F.=1)  AT K=   3, I=   2, J=  32


 TOTAL NUMBER OF POINT SOURCES/SINKS PRESENT IN THE FLOW MODEL =   240

 MAXIMUM STEPSIZE WHICH MEETS STABILITY CRITERION OF THE SINK & SOURCE TERM
 = 0.1000E+31(WHEN MIN. R.F.=1)  AT K=   0, I=   0, J=   0

 MAXIMUM STEPSIZE WHICH MEETS STABILITY CRITERION OF THE DISPERSION TERM
 = 0.5603E-02(WHEN MIN. R.F.=1)  AT K=   3, I=   2, J=  32
     1 CALLS TO GCG PACKAGE FOR TRANSPORT TIME STEP   7 IN FLOW TIME STEP  93 STRESS PERIOD   2
    10 TOTAL ITERATIONS
 
 SOLVING FOR HEAD 
 FLOW MODEL IS TRANSIENT
 FLOW MODEL CONTAINS CONSTANT-HEAD CELLS


 MAXIMUM STEPSIZE DURING WHICH ANY PARTICLE CANNOT MOVE MORE THAN ONE CELL
 = 0.1187    (WHEN MIN. R.F.=1)  AT K=   3, I=   2, J=  33

 MAXIMUM STEPSIZE WHICH MEETS STABILITY CRITERION OF THE ADVECTION TERM
 (FOR PURE FINITE-DIFFERENCE OPTION, MIXELM=0) 
 = 0.8135E-01(WHEN MIN. R.F.=1)  AT K=   3, I=   2, J=  32


 TOTAL NUMBER OF POINT SOURCES/SINKS PRESENT IN THE FLOW MODEL =   240

 MAXIMUM STEPSIZE WHICH MEETS STABILITY CRITERION OF THE SINK & SOURCE TERM
 = 0.1000E+31(WHEN MIN. R.F.=1)  AT K=   0, I=   0, J=   0

 MAXIMUM STEPSIZE WHICH MEETS STABILITY CRITERION OF THE DISPERSION TERM
 = 0.5603E-02(WHEN MIN. R.F.=1)  AT K=   3, I=   2, J=  32
     1 CALLS TO GCG PACKAGE FOR TRANSPORT TIME STEP   8 IN FLOW TIME STEP  93 STRESS PERIOD   2
     9 TOTAL ITERATIONS
 
 SOLVING FOR HEAD 
 FLOW MODEL IS TRANSIENT
 FLOW MODEL CONTAINS CONSTANT-HEAD CELLS


 MAXIMUM STEPSIZE DURING WHICH ANY PARTICLE CANNOT MOVE MORE THAN ONE CELL
 = 0.1187    (WHEN MIN. R.F.=1)  AT K=   3, I=   2, J=  33

 MAXIMUM STEPSIZE WHICH MEETS STABILITY CRITERION OF THE ADVECTION TERM
 (FOR PURE FINITE-DIFFERENCE OPTION, MIXELM=0) 
 = 0.8135E-01(WHEN MIN. R.F.=1)  AT K=   3, I=   2, J=  32


 TOTAL NUMBER OF POINT SOURCES/SINKS PRESENT IN THE FLOW MODEL =   240

 MAXIMUM STEPSIZE WHICH MEETS STABILITY CRITERION OF THE SINK & SOURCE TERM
 = 0.1000E+31(WHEN MIN. R.F.=1)  AT K=   0, I=   0, J=   0

 MAXIMUM STEPSIZE WHICH MEETS STABILITY CRITERION OF THE DISPERSION TERM
 = 0.5603E-02(WHEN MIN. R.F.=1)  AT K=   3, I=   2, J=  32
     1 CALLS TO GCG PACKAGE FOR TRANSPORT TIME STEP   9 IN FLOW TIME STEP  93 STRESS PERIOD   2
    10 TOTAL ITERATIONS
 
 SOLVING FOR HEAD 
 FLOW MODEL IS TRANSIENT
 FLOW MODEL CONTAINS CONSTANT-HEAD CELLS


 MAXIMUM STEPSIZE DURING WHICH ANY PARTICLE CANNOT MOVE MORE THAN ONE CELL
 = 0.1187    (WHEN MIN. R.F.=1)  AT K=   3, I=   2, J=  33

 MAXIMUM STEPSIZE WHICH MEETS STABILITY CRITERION OF THE ADVECTION TERM
 (FOR PURE FINITE-DIFFERENCE OPTION, MIXELM=0) 
 = 0.8135E-01(WHEN MIN. R.F.=1)  AT K=   3, I=   2, J=  32


 TOTAL NUMBER OF POINT SOURCES/SINKS PRESENT IN THE FLOW MODEL =   240

 MAXIMUM STEPSIZE WHICH MEETS STABILITY CRITERION OF THE SINK & SOURCE TERM
 = 0.1000E+31(WHEN MIN. R.F.=1)  AT K=   0, I=   0, J=   0

 MAXIMUM STEPSIZE WHICH MEETS STABILITY CRITERION OF THE DISPERSION TERM
 = 0.5603E-02(WHEN MIN. R.F.=1)  AT K=   3, I=   2, J=  32
     1 CALLS TO GCG PACKAGE FOR TRANSPORT TIME STEP  10 IN FLOW TIME STEP  93 STRESS PERIOD   2
     9 TOTAL ITERATIONS



 >>>>>>>>>>>>>>>>>>>>>>>>>>>>>>>>>>>>>>>>>>>>>>>>>>>>>>>FOR COMPONENT NO. 01<<<<<<<<<<<<<<<<<<<<<<<<<<<<<<<<<<<<<<<<<<<<<<<<<<<<<<<


                                            -------------------------------------------
                                                      TRANSPORT STEP NO.   10
                                            -------------------------------------------

 TOTAL ELAPSED TIME SINCE BEGINNING OF SIMULATION =   93.89014    D   
 .....................................................................

                     CUMULATIVE MASS BUDGETS AT END OF TRANSPORT STEP   10, TIME STEP   93, STRESS PERIOD    2
                     ------------------------------------------------------------------------------------------

                                                             IN                           OUT
                                                      ----------------             ----------------
                               CONSTANT CONCENTRATION:    13356.24                   -8335.838    
                                        CONSTANT HEAD:    0.000000                    0.000000    
                               MASS STOR (FLOW MODEL):   0.1324550E-01              -0.3446121E-02
                                MASS STORAGE (SOLUTE):    11.69330                   -5032.103    
                            ---------------------------------------------------------------------------
                                              [TOTAL]:    13367.94     KG            -13367.94     KG  

                                                          NET (IN - OUT):  -0.1976219E-02
                                                   DISCREPANCY (PERCENT):  -0.1478327E-04
 
 SOLVING FOR HEAD 
 FLOW MODEL IS TRANSIENT
 FLOW MODEL CONTAINS CONSTANT-HEAD CELLS


 MAXIMUM STEPSIZE DURING WHICH ANY PARTICLE CANNOT MOVE MORE THAN ONE CELL
 = 0.1187    (WHEN MIN. R.F.=1)  AT K=   3, I=   2, J=  33

 MAXIMUM STEPSIZE WHICH MEETS STABILITY CRITERION OF THE ADVECTION TERM
 (FOR PURE FINITE-DIFFERENCE OPTION, MIXELM=0) 
 = 0.8135E-01(WHEN MIN. R.F.=1)  AT K=   3, I=   2, J=  32


 TOTAL NUMBER OF POINT SOURCES/SINKS PRESENT IN THE FLOW MODEL =   240

 MAXIMUM STEPSIZE WHICH MEETS STABILITY CRITERION OF THE SINK & SOURCE TERM
 = 0.1000E+31(WHEN MIN. R.F.=1)  AT K=   0, I=   0, J=   0

 MAXIMUM STEPSIZE WHICH MEETS STABILITY CRITERION OF THE DISPERSION TERM
 = 0.5603E-02(WHEN MIN. R.F.=1)  AT K=   3, I=   2, J=  32
     1 CALLS TO GCG PACKAGE FOR TRANSPORT TIME STEP  11 IN FLOW TIME STEP  93 STRESS PERIOD   2
     9 TOTAL ITERATIONS
 
 SOLVING FOR HEAD 
 FLOW MODEL IS TRANSIENT
 FLOW MODEL CONTAINS CONSTANT-HEAD CELLS


 MAXIMUM STEPSIZE DURING WHICH ANY PARTICLE CANNOT MOVE MORE THAN ONE CELL
 = 0.1187    (WHEN MIN. R.F.=1)  AT K=   3, I=   2, J=  33

 MAXIMUM STEPSIZE WHICH MEETS STABILITY CRITERION OF THE ADVECTION TERM
 (FOR PURE FINITE-DIFFERENCE OPTION, MIXELM=0) 
 = 0.8135E-01(WHEN MIN. R.F.=1)  AT K=   3, I=   2, J=  32


 TOTAL NUMBER OF POINT SOURCES/SINKS PRESENT IN THE FLOW MODEL =   240

 MAXIMUM STEPSIZE WHICH MEETS STABILITY CRITERION OF THE SINK & SOURCE TERM
 = 0.1000E+31(WHEN MIN. R.F.=1)  AT K=   0, I=   0, J=   0

 MAXIMUM STEPSIZE WHICH MEETS STABILITY CRITERION OF THE DISPERSION TERM
 = 0.5603E-02(WHEN MIN. R.F.=1)  AT K=   3, I=   2, J=  32
     1 CALLS TO GCG PACKAGE FOR TRANSPORT TIME STEP  12 IN FLOW TIME STEP  93 STRESS PERIOD   2
     4 TOTAL ITERATIONS
  MAXIMUM CONCENTRATION CHANGES FOR EACH ITERATION:
  MAX. CHANGE LAYER,ROW,COL MAX. CHANGE LAYER,ROW,COL MAX. CHANGE LAYER,ROW,COL MAX. CHANGE LAYER,ROW,COL MAX. CHANGE LAYER,ROW,COL
 ------------------------------------------------------------------------------------------------------------------------------------
   0.1176E-03 ( 16,  2, 53)  0.4146E-05 (  6,  2, 61)  0.5855E-06 (  5,  2, 57)  0.8192E-07 (  7,  2, 61)


                                          ================================================
                                                         FROM TIME =   94.000     TO    95.000    

 
 SOLVING FOR HEAD 
 FLOW MODEL IS TRANSIENT
 FLOW MODEL CONTAINS CONSTANT-HEAD CELLS


 MAXIMUM STEPSIZE DURING WHICH ANY PARTICLE CANNOT MOVE MORE THAN ONE CELL
 = 0.1187    (WHEN MIN. R.F.=1)  AT K=   3, I=   2, J=  33

 MAXIMUM STEPSIZE WHICH MEETS STABILITY CRITERION OF THE ADVECTION TERM
 (FOR PURE FINITE-DIFFERENCE OPTION, MIXELM=0) 
 = 0.8135E-01(WHEN MIN. R.F.=1)  AT K=   3, I=   2, J=  32


 TOTAL NUMBER OF POINT SOURCES/SINKS PRESENT IN THE FLOW MODEL =   240

 MAXIMUM STEPSIZE WHICH MEETS STABILITY CRITERION OF THE SINK & SOURCE TERM
 = 0.1000E+31(WHEN MIN. R.F.=1)  AT K=   0, I=   0, J=   0

 MAXIMUM STEPSIZE WHICH MEETS STABILITY CRITERION OF THE DISPERSION TERM
 = 0.5603E-02(WHEN MIN. R.F.=1)  AT K=   3, I=   2, J=  32


     1 CALLS TO GCG PACKAGE FOR TRANSPORT TIME STEP   1 IN FLOW TIME STEP  94 STRESS PERIOD   2
     9 TOTAL ITERATIONS

 NO OUTPUT CONTROL FOR STRESS PERIOD    2   TIME STEP  94
 
 SOLVING FOR HEAD 
 FLOW MODEL IS TRANSIENT
 FLOW MODEL CONTAINS CONSTANT-HEAD CELLS


 MAXIMUM STEPSIZE DURING WHICH ANY PARTICLE CANNOT MOVE MORE THAN ONE CELL
 = 0.1187    (WHEN MIN. R.F.=1)  AT K=   3, I=   2, J=  33

 MAXIMUM STEPSIZE WHICH MEETS STABILITY CRITERION OF THE ADVECTION TERM
 (FOR PURE FINITE-DIFFERENCE OPTION, MIXELM=0) 
 = 0.8135E-01(WHEN MIN. R.F.=1)  AT K=   3, I=   2, J=  32


 TOTAL NUMBER OF POINT SOURCES/SINKS PRESENT IN THE FLOW MODEL =   240

 MAXIMUM STEPSIZE WHICH MEETS STABILITY CRITERION OF THE SINK & SOURCE TERM
 = 0.1000E+31(WHEN MIN. R.F.=1)  AT K=   0, I=   0, J=   0

 MAXIMUM STEPSIZE WHICH MEETS STABILITY CRITERION OF THE DISPERSION TERM
 = 0.5603E-02(WHEN MIN. R.F.=1)  AT K=   3, I=   2, J=  32
     1 CALLS TO GCG PACKAGE FOR TRANSPORT TIME STEP   2 IN FLOW TIME STEP  94 STRESS PERIOD   2
     9 TOTAL ITERATIONS
 
 SOLVING FOR HEAD 
 FLOW MODEL IS TRANSIENT
 FLOW MODEL CONTAINS CONSTANT-HEAD CELLS


 MAXIMUM STEPSIZE DURING WHICH ANY PARTICLE CANNOT MOVE MORE THAN ONE CELL
 = 0.1187    (WHEN MIN. R.F.=1)  AT K=   3, I=   2, J=  33

 MAXIMUM STEPSIZE WHICH MEETS STABILITY CRITERION OF THE ADVECTION TERM
 (FOR PURE FINITE-DIFFERENCE OPTION, MIXELM=0) 
 = 0.8135E-01(WHEN MIN. R.F.=1)  AT K=   3, I=   2, J=  32


 TOTAL NUMBER OF POINT SOURCES/SINKS PRESENT IN THE FLOW MODEL =   240

 MAXIMUM STEPSIZE WHICH MEETS STABILITY CRITERION OF THE SINK & SOURCE TERM
 = 0.1000E+31(WHEN MIN. R.F.=1)  AT K=   0, I=   0, J=   0

 MAXIMUM STEPSIZE WHICH MEETS STABILITY CRITERION OF THE DISPERSION TERM
 = 0.5603E-02(WHEN MIN. R.F.=1)  AT K=   3, I=   2, J=  32
     1 CALLS TO GCG PACKAGE FOR TRANSPORT TIME STEP   3 IN FLOW TIME STEP  94 STRESS PERIOD   2
     9 TOTAL ITERATIONS
 
 SOLVING FOR HEAD 
 FLOW MODEL IS TRANSIENT
 FLOW MODEL CONTAINS CONSTANT-HEAD CELLS


 MAXIMUM STEPSIZE DURING WHICH ANY PARTICLE CANNOT MOVE MORE THAN ONE CELL
 = 0.1187    (WHEN MIN. R.F.=1)  AT K=   3, I=   2, J=  33

 MAXIMUM STEPSIZE WHICH MEETS STABILITY CRITERION OF THE ADVECTION TERM
 (FOR PURE FINITE-DIFFERENCE OPTION, MIXELM=0) 
 = 0.8135E-01(WHEN MIN. R.F.=1)  AT K=   3, I=   2, J=  32


 TOTAL NUMBER OF POINT SOURCES/SINKS PRESENT IN THE FLOW MODEL =   240

 MAXIMUM STEPSIZE WHICH MEETS STABILITY CRITERION OF THE SINK & SOURCE TERM
 = 0.1000E+31(WHEN MIN. R.F.=1)  AT K=   0, I=   0, J=   0

 MAXIMUM STEPSIZE WHICH MEETS STABILITY CRITERION OF THE DISPERSION TERM
 = 0.5603E-02(WHEN MIN. R.F.=1)  AT K=   3, I=   2, J=  32
     1 CALLS TO GCG PACKAGE FOR TRANSPORT TIME STEP   4 IN FLOW TIME STEP  94 STRESS PERIOD   2
     9 TOTAL ITERATIONS
 
 SOLVING FOR HEAD 
 FLOW MODEL IS TRANSIENT
 FLOW MODEL CONTAINS CONSTANT-HEAD CELLS


 MAXIMUM STEPSIZE DURING WHICH ANY PARTICLE CANNOT MOVE MORE THAN ONE CELL
 = 0.1187    (WHEN MIN. R.F.=1)  AT K=   3, I=   2, J=  33

 MAXIMUM STEPSIZE WHICH MEETS STABILITY CRITERION OF THE ADVECTION TERM
 (FOR PURE FINITE-DIFFERENCE OPTION, MIXELM=0) 
 = 0.8135E-01(WHEN MIN. R.F.=1)  AT K=   3, I=   2, J=  32


 TOTAL NUMBER OF POINT SOURCES/SINKS PRESENT IN THE FLOW MODEL =   240

 MAXIMUM STEPSIZE WHICH MEETS STABILITY CRITERION OF THE SINK & SOURCE TERM
 = 0.1000E+31(WHEN MIN. R.F.=1)  AT K=   0, I=   0, J=   0

 MAXIMUM STEPSIZE WHICH MEETS STABILITY CRITERION OF THE DISPERSION TERM
 = 0.5603E-02(WHEN MIN. R.F.=1)  AT K=   3, I=   2, J=  32
     1 CALLS TO GCG PACKAGE FOR TRANSPORT TIME STEP   5 IN FLOW TIME STEP  94 STRESS PERIOD   2
     9 TOTAL ITERATIONS
 
 SOLVING FOR HEAD 
 FLOW MODEL IS TRANSIENT
 FLOW MODEL CONTAINS CONSTANT-HEAD CELLS


 MAXIMUM STEPSIZE DURING WHICH ANY PARTICLE CANNOT MOVE MORE THAN ONE CELL
 = 0.1187    (WHEN MIN. R.F.=1)  AT K=   3, I=   2, J=  33

 MAXIMUM STEPSIZE WHICH MEETS STABILITY CRITERION OF THE ADVECTION TERM
 (FOR PURE FINITE-DIFFERENCE OPTION, MIXELM=0) 
 = 0.8135E-01(WHEN MIN. R.F.=1)  AT K=   3, I=   2, J=  32


 TOTAL NUMBER OF POINT SOURCES/SINKS PRESENT IN THE FLOW MODEL =   240

 MAXIMUM STEPSIZE WHICH MEETS STABILITY CRITERION OF THE SINK & SOURCE TERM
 = 0.1000E+31(WHEN MIN. R.F.=1)  AT K=   0, I=   0, J=   0

 MAXIMUM STEPSIZE WHICH MEETS STABILITY CRITERION OF THE DISPERSION TERM
 = 0.5603E-02(WHEN MIN. R.F.=1)  AT K=   3, I=   2, J=  32
     1 CALLS TO GCG PACKAGE FOR TRANSPORT TIME STEP   6 IN FLOW TIME STEP  94 STRESS PERIOD   2
     9 TOTAL ITERATIONS
 
 SOLVING FOR HEAD 
 FLOW MODEL IS TRANSIENT
 FLOW MODEL CONTAINS CONSTANT-HEAD CELLS


 MAXIMUM STEPSIZE DURING WHICH ANY PARTICLE CANNOT MOVE MORE THAN ONE CELL
 = 0.1187    (WHEN MIN. R.F.=1)  AT K=   3, I=   2, J=  33

 MAXIMUM STEPSIZE WHICH MEETS STABILITY CRITERION OF THE ADVECTION TERM
 (FOR PURE FINITE-DIFFERENCE OPTION, MIXELM=0) 
 = 0.8134E-01(WHEN MIN. R.F.=1)  AT K=   3, I=   2, J=  32


 TOTAL NUMBER OF POINT SOURCES/SINKS PRESENT IN THE FLOW MODEL =   240

 MAXIMUM STEPSIZE WHICH MEETS STABILITY CRITERION OF THE SINK & SOURCE TERM
 = 0.1000E+31(WHEN MIN. R.F.=1)  AT K=   0, I=   0, J=   0

 MAXIMUM STEPSIZE WHICH MEETS STABILITY CRITERION OF THE DISPERSION TERM
 = 0.5603E-02(WHEN MIN. R.F.=1)  AT K=   3, I=   2, J=  32
     1 CALLS TO GCG PACKAGE FOR TRANSPORT TIME STEP   7 IN FLOW TIME STEP  94 STRESS PERIOD   2
     9 TOTAL ITERATIONS
 
 SOLVING FOR HEAD 
 FLOW MODEL IS TRANSIENT
 FLOW MODEL CONTAINS CONSTANT-HEAD CELLS


 MAXIMUM STEPSIZE DURING WHICH ANY PARTICLE CANNOT MOVE MORE THAN ONE CELL
 = 0.1187    (WHEN MIN. R.F.=1)  AT K=   3, I=   2, J=  33

 MAXIMUM STEPSIZE WHICH MEETS STABILITY CRITERION OF THE ADVECTION TERM
 (FOR PURE FINITE-DIFFERENCE OPTION, MIXELM=0) 
 = 0.8134E-01(WHEN MIN. R.F.=1)  AT K=   3, I=   2, J=  32


 TOTAL NUMBER OF POINT SOURCES/SINKS PRESENT IN THE FLOW MODEL =   240

 MAXIMUM STEPSIZE WHICH MEETS STABILITY CRITERION OF THE SINK & SOURCE TERM
 = 0.1000E+31(WHEN MIN. R.F.=1)  AT K=   0, I=   0, J=   0

 MAXIMUM STEPSIZE WHICH MEETS STABILITY CRITERION OF THE DISPERSION TERM
 = 0.5603E-02(WHEN MIN. R.F.=1)  AT K=   3, I=   2, J=  32
     1 CALLS TO GCG PACKAGE FOR TRANSPORT TIME STEP   8 IN FLOW TIME STEP  94 STRESS PERIOD   2
     9 TOTAL ITERATIONS
 
 SOLVING FOR HEAD 
 FLOW MODEL IS TRANSIENT
 FLOW MODEL CONTAINS CONSTANT-HEAD CELLS


 MAXIMUM STEPSIZE DURING WHICH ANY PARTICLE CANNOT MOVE MORE THAN ONE CELL
 = 0.1187    (WHEN MIN. R.F.=1)  AT K=   3, I=   2, J=  33

 MAXIMUM STEPSIZE WHICH MEETS STABILITY CRITERION OF THE ADVECTION TERM
 (FOR PURE FINITE-DIFFERENCE OPTION, MIXELM=0) 
 = 0.8134E-01(WHEN MIN. R.F.=1)  AT K=   3, I=   2, J=  32


 TOTAL NUMBER OF POINT SOURCES/SINKS PRESENT IN THE FLOW MODEL =   240

 MAXIMUM STEPSIZE WHICH MEETS STABILITY CRITERION OF THE SINK & SOURCE TERM
 = 0.1000E+31(WHEN MIN. R.F.=1)  AT K=   0, I=   0, J=   0

 MAXIMUM STEPSIZE WHICH MEETS STABILITY CRITERION OF THE DISPERSION TERM
 = 0.5603E-02(WHEN MIN. R.F.=1)  AT K=   3, I=   2, J=  32
     1 CALLS TO GCG PACKAGE FOR TRANSPORT TIME STEP   9 IN FLOW TIME STEP  94 STRESS PERIOD   2
     9 TOTAL ITERATIONS
 
 SOLVING FOR HEAD 
 FLOW MODEL IS TRANSIENT
 FLOW MODEL CONTAINS CONSTANT-HEAD CELLS


 MAXIMUM STEPSIZE DURING WHICH ANY PARTICLE CANNOT MOVE MORE THAN ONE CELL
 = 0.1187    (WHEN MIN. R.F.=1)  AT K=   3, I=   2, J=  33

 MAXIMUM STEPSIZE WHICH MEETS STABILITY CRITERION OF THE ADVECTION TERM
 (FOR PURE FINITE-DIFFERENCE OPTION, MIXELM=0) 
 = 0.8134E-01(WHEN MIN. R.F.=1)  AT K=   3, I=   2, J=  32


 TOTAL NUMBER OF POINT SOURCES/SINKS PRESENT IN THE FLOW MODEL =   240

 MAXIMUM STEPSIZE WHICH MEETS STABILITY CRITERION OF THE SINK & SOURCE TERM
 = 0.1000E+31(WHEN MIN. R.F.=1)  AT K=   0, I=   0, J=   0

 MAXIMUM STEPSIZE WHICH MEETS STABILITY CRITERION OF THE DISPERSION TERM
 = 0.5603E-02(WHEN MIN. R.F.=1)  AT K=   3, I=   2, J=  32
     1 CALLS TO GCG PACKAGE FOR TRANSPORT TIME STEP  10 IN FLOW TIME STEP  94 STRESS PERIOD   2
     9 TOTAL ITERATIONS



 >>>>>>>>>>>>>>>>>>>>>>>>>>>>>>>>>>>>>>>>>>>>>>>>>>>>>>>FOR COMPONENT NO. 01<<<<<<<<<<<<<<<<<<<<<<<<<<<<<<<<<<<<<<<<<<<<<<<<<<<<<<<


                                            -------------------------------------------
                                                      TRANSPORT STEP NO.   10
                                            -------------------------------------------

 TOTAL ELAPSED TIME SINCE BEGINNING OF SIMULATION =   94.89013    D   
 .....................................................................

                     CUMULATIVE MASS BUDGETS AT END OF TRANSPORT STEP   10, TIME STEP   94, STRESS PERIOD    2
                     ------------------------------------------------------------------------------------------

                                                             IN                           OUT
                                                      ----------------             ----------------
                               CONSTANT CONCENTRATION:    13459.72                   -8428.915    
                                        CONSTANT HEAD:    0.000000                    0.000000    
                               MASS STOR (FLOW MODEL):   0.1325831E-01              -0.3447588E-02
                                MASS STORAGE (SOLUTE):    11.82392                   -5042.641    
                            ---------------------------------------------------------------------------
                                              [TOTAL]:    13471.56     KG            -13471.56     KG  

                                                          NET (IN - OUT):  -0.1676928E-02
                                                   DISCREPANCY (PERCENT):  -0.1244791E-04
 
 SOLVING FOR HEAD 
 FLOW MODEL IS TRANSIENT
 FLOW MODEL CONTAINS CONSTANT-HEAD CELLS


 MAXIMUM STEPSIZE DURING WHICH ANY PARTICLE CANNOT MOVE MORE THAN ONE CELL
 = 0.1187    (WHEN MIN. R.F.=1)  AT K=   3, I=   2, J=  33

 MAXIMUM STEPSIZE WHICH MEETS STABILITY CRITERION OF THE ADVECTION TERM
 (FOR PURE FINITE-DIFFERENCE OPTION, MIXELM=0) 
 = 0.8134E-01(WHEN MIN. R.F.=1)  AT K=   3, I=   2, J=  32


 TOTAL NUMBER OF POINT SOURCES/SINKS PRESENT IN THE FLOW MODEL =   240

 MAXIMUM STEPSIZE WHICH MEETS STABILITY CRITERION OF THE SINK & SOURCE TERM
 = 0.1000E+31(WHEN MIN. R.F.=1)  AT K=   0, I=   0, J=   0

 MAXIMUM STEPSIZE WHICH MEETS STABILITY CRITERION OF THE DISPERSION TERM
 = 0.5603E-02(WHEN MIN. R.F.=1)  AT K=   3, I=   2, J=  32
     1 CALLS TO GCG PACKAGE FOR TRANSPORT TIME STEP  11 IN FLOW TIME STEP  94 STRESS PERIOD   2
     9 TOTAL ITERATIONS
 
 SOLVING FOR HEAD 
 FLOW MODEL IS TRANSIENT
 FLOW MODEL CONTAINS CONSTANT-HEAD CELLS


 MAXIMUM STEPSIZE DURING WHICH ANY PARTICLE CANNOT MOVE MORE THAN ONE CELL
 = 0.1187    (WHEN MIN. R.F.=1)  AT K=   3, I=   2, J=  33

 MAXIMUM STEPSIZE WHICH MEETS STABILITY CRITERION OF THE ADVECTION TERM
 (FOR PURE FINITE-DIFFERENCE OPTION, MIXELM=0) 
 = 0.8134E-01(WHEN MIN. R.F.=1)  AT K=   3, I=   2, J=  32


 TOTAL NUMBER OF POINT SOURCES/SINKS PRESENT IN THE FLOW MODEL =   240

 MAXIMUM STEPSIZE WHICH MEETS STABILITY CRITERION OF THE SINK & SOURCE TERM
 = 0.1000E+31(WHEN MIN. R.F.=1)  AT K=   0, I=   0, J=   0

 MAXIMUM STEPSIZE WHICH MEETS STABILITY CRITERION OF THE DISPERSION TERM
 = 0.5603E-02(WHEN MIN. R.F.=1)  AT K=   3, I=   2, J=  32
     1 CALLS TO GCG PACKAGE FOR TRANSPORT TIME STEP  12 IN FLOW TIME STEP  94 STRESS PERIOD   2
     4 TOTAL ITERATIONS
  MAXIMUM CONCENTRATION CHANGES FOR EACH ITERATION:
  MAX. CHANGE LAYER,ROW,COL MAX. CHANGE LAYER,ROW,COL MAX. CHANGE LAYER,ROW,COL MAX. CHANGE LAYER,ROW,COL MAX. CHANGE LAYER,ROW,COL
 ------------------------------------------------------------------------------------------------------------------------------------
   0.1159E-03 ( 14,  3, 50)  0.4051E-05 (  6,  2, 61)  0.5710E-06 (  5,  2, 57)  0.7876E-07 (  7,  2, 61)


                                          ================================================
                                                         FROM TIME =   95.000     TO    96.000    

 
 SOLVING FOR HEAD 
 FLOW MODEL IS TRANSIENT
 FLOW MODEL CONTAINS CONSTANT-HEAD CELLS


 MAXIMUM STEPSIZE DURING WHICH ANY PARTICLE CANNOT MOVE MORE THAN ONE CELL
 = 0.1187    (WHEN MIN. R.F.=1)  AT K=   3, I=   2, J=  33

 MAXIMUM STEPSIZE WHICH MEETS STABILITY CRITERION OF THE ADVECTION TERM
 (FOR PURE FINITE-DIFFERENCE OPTION, MIXELM=0) 
 = 0.8134E-01(WHEN MIN. R.F.=1)  AT K=   3, I=   2, J=  32


 TOTAL NUMBER OF POINT SOURCES/SINKS PRESENT IN THE FLOW MODEL =   240

 MAXIMUM STEPSIZE WHICH MEETS STABILITY CRITERION OF THE SINK & SOURCE TERM
 = 0.1000E+31(WHEN MIN. R.F.=1)  AT K=   0, I=   0, J=   0

 MAXIMUM STEPSIZE WHICH MEETS STABILITY CRITERION OF THE DISPERSION TERM
 = 0.5603E-02(WHEN MIN. R.F.=1)  AT K=   3, I=   2, J=  32


     1 CALLS TO GCG PACKAGE FOR TRANSPORT TIME STEP   1 IN FLOW TIME STEP  95 STRESS PERIOD   2
     9 TOTAL ITERATIONS

 NO OUTPUT CONTROL FOR STRESS PERIOD    2   TIME STEP  95
 
 SOLVING FOR HEAD 
 FLOW MODEL IS TRANSIENT
 FLOW MODEL CONTAINS CONSTANT-HEAD CELLS


 MAXIMUM STEPSIZE DURING WHICH ANY PARTICLE CANNOT MOVE MORE THAN ONE CELL
 = 0.1187    (WHEN MIN. R.F.=1)  AT K=   3, I=   2, J=  33

 MAXIMUM STEPSIZE WHICH MEETS STABILITY CRITERION OF THE ADVECTION TERM
 (FOR PURE FINITE-DIFFERENCE OPTION, MIXELM=0) 
 = 0.8134E-01(WHEN MIN. R.F.=1)  AT K=   3, I=   2, J=  32


 TOTAL NUMBER OF POINT SOURCES/SINKS PRESENT IN THE FLOW MODEL =   240

 MAXIMUM STEPSIZE WHICH MEETS STABILITY CRITERION OF THE SINK & SOURCE TERM
 = 0.1000E+31(WHEN MIN. R.F.=1)  AT K=   0, I=   0, J=   0

 MAXIMUM STEPSIZE WHICH MEETS STABILITY CRITERION OF THE DISPERSION TERM
 = 0.5603E-02(WHEN MIN. R.F.=1)  AT K=   3, I=   2, J=  32
     1 CALLS TO GCG PACKAGE FOR TRANSPORT TIME STEP   2 IN FLOW TIME STEP  95 STRESS PERIOD   2
     9 TOTAL ITERATIONS
 
 SOLVING FOR HEAD 
 FLOW MODEL IS TRANSIENT
 FLOW MODEL CONTAINS CONSTANT-HEAD CELLS


 MAXIMUM STEPSIZE DURING WHICH ANY PARTICLE CANNOT MOVE MORE THAN ONE CELL
 = 0.1187    (WHEN MIN. R.F.=1)  AT K=   3, I=   2, J=  33

 MAXIMUM STEPSIZE WHICH MEETS STABILITY CRITERION OF THE ADVECTION TERM
 (FOR PURE FINITE-DIFFERENCE OPTION, MIXELM=0) 
 = 0.8134E-01(WHEN MIN. R.F.=1)  AT K=   3, I=   2, J=  32


 TOTAL NUMBER OF POINT SOURCES/SINKS PRESENT IN THE FLOW MODEL =   240

 MAXIMUM STEPSIZE WHICH MEETS STABILITY CRITERION OF THE SINK & SOURCE TERM
 = 0.1000E+31(WHEN MIN. R.F.=1)  AT K=   0, I=   0, J=   0

 MAXIMUM STEPSIZE WHICH MEETS STABILITY CRITERION OF THE DISPERSION TERM
 = 0.5603E-02(WHEN MIN. R.F.=1)  AT K=   3, I=   2, J=  32
     1 CALLS TO GCG PACKAGE FOR TRANSPORT TIME STEP   3 IN FLOW TIME STEP  95 STRESS PERIOD   2
     9 TOTAL ITERATIONS
 
 SOLVING FOR HEAD 
 FLOW MODEL IS TRANSIENT
 FLOW MODEL CONTAINS CONSTANT-HEAD CELLS


 MAXIMUM STEPSIZE DURING WHICH ANY PARTICLE CANNOT MOVE MORE THAN ONE CELL
 = 0.1187    (WHEN MIN. R.F.=1)  AT K=   3, I=   2, J=  33

 MAXIMUM STEPSIZE WHICH MEETS STABILITY CRITERION OF THE ADVECTION TERM
 (FOR PURE FINITE-DIFFERENCE OPTION, MIXELM=0) 
 = 0.8134E-01(WHEN MIN. R.F.=1)  AT K=   3, I=   2, J=  32


 TOTAL NUMBER OF POINT SOURCES/SINKS PRESENT IN THE FLOW MODEL =   240

 MAXIMUM STEPSIZE WHICH MEETS STABILITY CRITERION OF THE SINK & SOURCE TERM
 = 0.1000E+31(WHEN MIN. R.F.=1)  AT K=   0, I=   0, J=   0

 MAXIMUM STEPSIZE WHICH MEETS STABILITY CRITERION OF THE DISPERSION TERM
 = 0.5603E-02(WHEN MIN. R.F.=1)  AT K=   3, I=   2, J=  32
     1 CALLS TO GCG PACKAGE FOR TRANSPORT TIME STEP   4 IN FLOW TIME STEP  95 STRESS PERIOD   2
     9 TOTAL ITERATIONS
 
 SOLVING FOR HEAD 
 FLOW MODEL IS TRANSIENT
 FLOW MODEL CONTAINS CONSTANT-HEAD CELLS


 MAXIMUM STEPSIZE DURING WHICH ANY PARTICLE CANNOT MOVE MORE THAN ONE CELL
 = 0.1187    (WHEN MIN. R.F.=1)  AT K=   3, I=   2, J=  33

 MAXIMUM STEPSIZE WHICH MEETS STABILITY CRITERION OF THE ADVECTION TERM
 (FOR PURE FINITE-DIFFERENCE OPTION, MIXELM=0) 
 = 0.8134E-01(WHEN MIN. R.F.=1)  AT K=   3, I=   2, J=  32


 TOTAL NUMBER OF POINT SOURCES/SINKS PRESENT IN THE FLOW MODEL =   240

 MAXIMUM STEPSIZE WHICH MEETS STABILITY CRITERION OF THE SINK & SOURCE TERM
 = 0.1000E+31(WHEN MIN. R.F.=1)  AT K=   0, I=   0, J=   0

 MAXIMUM STEPSIZE WHICH MEETS STABILITY CRITERION OF THE DISPERSION TERM
 = 0.5603E-02(WHEN MIN. R.F.=1)  AT K=   3, I=   2, J=  32
     1 CALLS TO GCG PACKAGE FOR TRANSPORT TIME STEP   5 IN FLOW TIME STEP  95 STRESS PERIOD   2
     9 TOTAL ITERATIONS
 
 SOLVING FOR HEAD 
 FLOW MODEL IS TRANSIENT
 FLOW MODEL CONTAINS CONSTANT-HEAD CELLS


 MAXIMUM STEPSIZE DURING WHICH ANY PARTICLE CANNOT MOVE MORE THAN ONE CELL
 = 0.1187    (WHEN MIN. R.F.=1)  AT K=   3, I=   2, J=  33

 MAXIMUM STEPSIZE WHICH MEETS STABILITY CRITERION OF THE ADVECTION TERM
 (FOR PURE FINITE-DIFFERENCE OPTION, MIXELM=0) 
 = 0.8134E-01(WHEN MIN. R.F.=1)  AT K=   3, I=   2, J=  32


 TOTAL NUMBER OF POINT SOURCES/SINKS PRESENT IN THE FLOW MODEL =   240

 MAXIMUM STEPSIZE WHICH MEETS STABILITY CRITERION OF THE SINK & SOURCE TERM
 = 0.1000E+31(WHEN MIN. R.F.=1)  AT K=   0, I=   0, J=   0

 MAXIMUM STEPSIZE WHICH MEETS STABILITY CRITERION OF THE DISPERSION TERM
 = 0.5603E-02(WHEN MIN. R.F.=1)  AT K=   3, I=   2, J=  32
     1 CALLS TO GCG PACKAGE FOR TRANSPORT TIME STEP   6 IN FLOW TIME STEP  95 STRESS PERIOD   2
     9 TOTAL ITERATIONS
 
 SOLVING FOR HEAD 
 FLOW MODEL IS TRANSIENT
 FLOW MODEL CONTAINS CONSTANT-HEAD CELLS


 MAXIMUM STEPSIZE DURING WHICH ANY PARTICLE CANNOT MOVE MORE THAN ONE CELL
 = 0.1187    (WHEN MIN. R.F.=1)  AT K=   3, I=   2, J=  33

 MAXIMUM STEPSIZE WHICH MEETS STABILITY CRITERION OF THE ADVECTION TERM
 (FOR PURE FINITE-DIFFERENCE OPTION, MIXELM=0) 
 = 0.8134E-01(WHEN MIN. R.F.=1)  AT K=   3, I=   2, J=  32


 TOTAL NUMBER OF POINT SOURCES/SINKS PRESENT IN THE FLOW MODEL =   240

 MAXIMUM STEPSIZE WHICH MEETS STABILITY CRITERION OF THE SINK & SOURCE TERM
 = 0.1000E+31(WHEN MIN. R.F.=1)  AT K=   0, I=   0, J=   0

 MAXIMUM STEPSIZE WHICH MEETS STABILITY CRITERION OF THE DISPERSION TERM
 = 0.5603E-02(WHEN MIN. R.F.=1)  AT K=   3, I=   2, J=  32
     1 CALLS TO GCG PACKAGE FOR TRANSPORT TIME STEP   7 IN FLOW TIME STEP  95 STRESS PERIOD   2
     9 TOTAL ITERATIONS
 
 SOLVING FOR HEAD 
 FLOW MODEL IS TRANSIENT
 FLOW MODEL CONTAINS CONSTANT-HEAD CELLS


 MAXIMUM STEPSIZE DURING WHICH ANY PARTICLE CANNOT MOVE MORE THAN ONE CELL
 = 0.1187    (WHEN MIN. R.F.=1)  AT K=   3, I=   2, J=  33

 MAXIMUM STEPSIZE WHICH MEETS STABILITY CRITERION OF THE ADVECTION TERM
 (FOR PURE FINITE-DIFFERENCE OPTION, MIXELM=0) 
 = 0.8134E-01(WHEN MIN. R.F.=1)  AT K=   3, I=   2, J=  32


 TOTAL NUMBER OF POINT SOURCES/SINKS PRESENT IN THE FLOW MODEL =   240

 MAXIMUM STEPSIZE WHICH MEETS STABILITY CRITERION OF THE SINK & SOURCE TERM
 = 0.1000E+31(WHEN MIN. R.F.=1)  AT K=   0, I=   0, J=   0

 MAXIMUM STEPSIZE WHICH MEETS STABILITY CRITERION OF THE DISPERSION TERM
 = 0.5603E-02(WHEN MIN. R.F.=1)  AT K=   3, I=   2, J=  32
     1 CALLS TO GCG PACKAGE FOR TRANSPORT TIME STEP   8 IN FLOW TIME STEP  95 STRESS PERIOD   2
     9 TOTAL ITERATIONS
 
 SOLVING FOR HEAD 
 FLOW MODEL IS TRANSIENT
 FLOW MODEL CONTAINS CONSTANT-HEAD CELLS


 MAXIMUM STEPSIZE DURING WHICH ANY PARTICLE CANNOT MOVE MORE THAN ONE CELL
 = 0.1187    (WHEN MIN. R.F.=1)  AT K=   3, I=   2, J=  33

 MAXIMUM STEPSIZE WHICH MEETS STABILITY CRITERION OF THE ADVECTION TERM
 (FOR PURE FINITE-DIFFERENCE OPTION, MIXELM=0) 
 = 0.8134E-01(WHEN MIN. R.F.=1)  AT K=   3, I=   2, J=  32


 TOTAL NUMBER OF POINT SOURCES/SINKS PRESENT IN THE FLOW MODEL =   240

 MAXIMUM STEPSIZE WHICH MEETS STABILITY CRITERION OF THE SINK & SOURCE TERM
 = 0.1000E+31(WHEN MIN. R.F.=1)  AT K=   0, I=   0, J=   0

 MAXIMUM STEPSIZE WHICH MEETS STABILITY CRITERION OF THE DISPERSION TERM
 = 0.5603E-02(WHEN MIN. R.F.=1)  AT K=   3, I=   2, J=  32
     1 CALLS TO GCG PACKAGE FOR TRANSPORT TIME STEP   9 IN FLOW TIME STEP  95 STRESS PERIOD   2
     9 TOTAL ITERATIONS
 
 SOLVING FOR HEAD 
 FLOW MODEL IS TRANSIENT
 FLOW MODEL CONTAINS CONSTANT-HEAD CELLS


 MAXIMUM STEPSIZE DURING WHICH ANY PARTICLE CANNOT MOVE MORE THAN ONE CELL
 = 0.1187    (WHEN MIN. R.F.=1)  AT K=   3, I=   2, J=  33

 MAXIMUM STEPSIZE WHICH MEETS STABILITY CRITERION OF THE ADVECTION TERM
 (FOR PURE FINITE-DIFFERENCE OPTION, MIXELM=0) 
 = 0.8134E-01(WHEN MIN. R.F.=1)  AT K=   3, I=   2, J=  32


 TOTAL NUMBER OF POINT SOURCES/SINKS PRESENT IN THE FLOW MODEL =   240

 MAXIMUM STEPSIZE WHICH MEETS STABILITY CRITERION OF THE SINK & SOURCE TERM
 = 0.1000E+31(WHEN MIN. R.F.=1)  AT K=   0, I=   0, J=   0

 MAXIMUM STEPSIZE WHICH MEETS STABILITY CRITERION OF THE DISPERSION TERM
 = 0.5603E-02(WHEN MIN. R.F.=1)  AT K=   3, I=   2, J=  32
     1 CALLS TO GCG PACKAGE FOR TRANSPORT TIME STEP  10 IN FLOW TIME STEP  95 STRESS PERIOD   2
     9 TOTAL ITERATIONS



 >>>>>>>>>>>>>>>>>>>>>>>>>>>>>>>>>>>>>>>>>>>>>>>>>>>>>>>FOR COMPONENT NO. 01<<<<<<<<<<<<<<<<<<<<<<<<<<<<<<<<<<<<<<<<<<<<<<<<<<<<<<<


                                            -------------------------------------------
                                                      TRANSPORT STEP NO.   10
                                            -------------------------------------------

 TOTAL ELAPSED TIME SINCE BEGINNING OF SIMULATION =   95.89012    D   
 .....................................................................

                     CUMULATIVE MASS BUDGETS AT END OF TRANSPORT STEP   10, TIME STEP   95, STRESS PERIOD    2
                     ------------------------------------------------------------------------------------------

                                                             IN                           OUT
                                                      ----------------             ----------------
                               CONSTANT CONCENTRATION:    13563.12                   -8521.999    
                                        CONSTANT HEAD:    0.000000                    0.000000    
                               MASS STOR (FLOW MODEL):   0.1327104E-01              -0.3449012E-02
                                MASS STORAGE (SOLUTE):    11.95089                   -5053.079    
                            ---------------------------------------------------------------------------
                                              [TOTAL]:    13575.08     KG            -13575.08     KG  

                                                          NET (IN - OUT):  -0.1415046E-02
                                                   DISCREPANCY (PERCENT):  -0.1042385E-04
 
 SOLVING FOR HEAD 
 FLOW MODEL IS TRANSIENT
 FLOW MODEL CONTAINS CONSTANT-HEAD CELLS


 MAXIMUM STEPSIZE DURING WHICH ANY PARTICLE CANNOT MOVE MORE THAN ONE CELL
 = 0.1187    (WHEN MIN. R.F.=1)  AT K=   3, I=   2, J=  33

 MAXIMUM STEPSIZE WHICH MEETS STABILITY CRITERION OF THE ADVECTION TERM
 (FOR PURE FINITE-DIFFERENCE OPTION, MIXELM=0) 
 = 0.8134E-01(WHEN MIN. R.F.=1)  AT K=   3, I=   2, J=  32


 TOTAL NUMBER OF POINT SOURCES/SINKS PRESENT IN THE FLOW MODEL =   240

 MAXIMUM STEPSIZE WHICH MEETS STABILITY CRITERION OF THE SINK & SOURCE TERM
 = 0.1000E+31(WHEN MIN. R.F.=1)  AT K=   0, I=   0, J=   0

 MAXIMUM STEPSIZE WHICH MEETS STABILITY CRITERION OF THE DISPERSION TERM
 = 0.5603E-02(WHEN MIN. R.F.=1)  AT K=   3, I=   2, J=  32
     1 CALLS TO GCG PACKAGE FOR TRANSPORT TIME STEP  11 IN FLOW TIME STEP  95 STRESS PERIOD   2
     9 TOTAL ITERATIONS
 
 SOLVING FOR HEAD 
 FLOW MODEL IS TRANSIENT
 FLOW MODEL CONTAINS CONSTANT-HEAD CELLS


 MAXIMUM STEPSIZE DURING WHICH ANY PARTICLE CANNOT MOVE MORE THAN ONE CELL
 = 0.1187    (WHEN MIN. R.F.=1)  AT K=   3, I=   2, J=  33

 MAXIMUM STEPSIZE WHICH MEETS STABILITY CRITERION OF THE ADVECTION TERM
 (FOR PURE FINITE-DIFFERENCE OPTION, MIXELM=0) 
 = 0.8134E-01(WHEN MIN. R.F.=1)  AT K=   3, I=   2, J=  32


 TOTAL NUMBER OF POINT SOURCES/SINKS PRESENT IN THE FLOW MODEL =   240

 MAXIMUM STEPSIZE WHICH MEETS STABILITY CRITERION OF THE SINK & SOURCE TERM
 = 0.1000E+31(WHEN MIN. R.F.=1)  AT K=   0, I=   0, J=   0

 MAXIMUM STEPSIZE WHICH MEETS STABILITY CRITERION OF THE DISPERSION TERM
 = 0.5603E-02(WHEN MIN. R.F.=1)  AT K=   3, I=   2, J=  32
     1 CALLS TO GCG PACKAGE FOR TRANSPORT TIME STEP  12 IN FLOW TIME STEP  95 STRESS PERIOD   2
     4 TOTAL ITERATIONS
  MAXIMUM CONCENTRATION CHANGES FOR EACH ITERATION:
  MAX. CHANGE LAYER,ROW,COL MAX. CHANGE LAYER,ROW,COL MAX. CHANGE LAYER,ROW,COL MAX. CHANGE LAYER,ROW,COL MAX. CHANGE LAYER,ROW,COL
 ------------------------------------------------------------------------------------------------------------------------------------
   0.1155E-03 ( 14,  3, 50)  0.3960E-05 (  6,  2, 61)  0.5579E-06 (  5,  2, 57)  0.7477E-07 (  7,  2, 61)


                                          ================================================
                                                         FROM TIME =   96.000     TO    97.000    

 
 SOLVING FOR HEAD 
 FLOW MODEL IS TRANSIENT
 FLOW MODEL CONTAINS CONSTANT-HEAD CELLS


 MAXIMUM STEPSIZE DURING WHICH ANY PARTICLE CANNOT MOVE MORE THAN ONE CELL
 = 0.1187    (WHEN MIN. R.F.=1)  AT K=   3, I=   2, J=  33

 MAXIMUM STEPSIZE WHICH MEETS STABILITY CRITERION OF THE ADVECTION TERM
 (FOR PURE FINITE-DIFFERENCE OPTION, MIXELM=0) 
 = 0.8134E-01(WHEN MIN. R.F.=1)  AT K=   3, I=   2, J=  32


 TOTAL NUMBER OF POINT SOURCES/SINKS PRESENT IN THE FLOW MODEL =   240

 MAXIMUM STEPSIZE WHICH MEETS STABILITY CRITERION OF THE SINK & SOURCE TERM
 = 0.1000E+31(WHEN MIN. R.F.=1)  AT K=   0, I=   0, J=   0

 MAXIMUM STEPSIZE WHICH MEETS STABILITY CRITERION OF THE DISPERSION TERM
 = 0.5603E-02(WHEN MIN. R.F.=1)  AT K=   3, I=   2, J=  32


     1 CALLS TO GCG PACKAGE FOR TRANSPORT TIME STEP   1 IN FLOW TIME STEP  96 STRESS PERIOD   2
     9 TOTAL ITERATIONS

 NO OUTPUT CONTROL FOR STRESS PERIOD    2   TIME STEP  96
 
 SOLVING FOR HEAD 
 FLOW MODEL IS TRANSIENT
 FLOW MODEL CONTAINS CONSTANT-HEAD CELLS


 MAXIMUM STEPSIZE DURING WHICH ANY PARTICLE CANNOT MOVE MORE THAN ONE CELL
 = 0.1187    (WHEN MIN. R.F.=1)  AT K=   3, I=   2, J=  33

 MAXIMUM STEPSIZE WHICH MEETS STABILITY CRITERION OF THE ADVECTION TERM
 (FOR PURE FINITE-DIFFERENCE OPTION, MIXELM=0) 
 = 0.8134E-01(WHEN MIN. R.F.=1)  AT K=   3, I=   2, J=  32


 TOTAL NUMBER OF POINT SOURCES/SINKS PRESENT IN THE FLOW MODEL =   240

 MAXIMUM STEPSIZE WHICH MEETS STABILITY CRITERION OF THE SINK & SOURCE TERM
 = 0.1000E+31(WHEN MIN. R.F.=1)  AT K=   0, I=   0, J=   0

 MAXIMUM STEPSIZE WHICH MEETS STABILITY CRITERION OF THE DISPERSION TERM
 = 0.5603E-02(WHEN MIN. R.F.=1)  AT K=   3, I=   2, J=  32
     1 CALLS TO GCG PACKAGE FOR TRANSPORT TIME STEP   2 IN FLOW TIME STEP  96 STRESS PERIOD   2
     9 TOTAL ITERATIONS
 
 SOLVING FOR HEAD 
 FLOW MODEL IS TRANSIENT
 FLOW MODEL CONTAINS CONSTANT-HEAD CELLS


 MAXIMUM STEPSIZE DURING WHICH ANY PARTICLE CANNOT MOVE MORE THAN ONE CELL
 = 0.1187    (WHEN MIN. R.F.=1)  AT K=   3, I=   2, J=  33

 MAXIMUM STEPSIZE WHICH MEETS STABILITY CRITERION OF THE ADVECTION TERM
 (FOR PURE FINITE-DIFFERENCE OPTION, MIXELM=0) 
 = 0.8134E-01(WHEN MIN. R.F.=1)  AT K=   3, I=   2, J=  32


 TOTAL NUMBER OF POINT SOURCES/SINKS PRESENT IN THE FLOW MODEL =   240

 MAXIMUM STEPSIZE WHICH MEETS STABILITY CRITERION OF THE SINK & SOURCE TERM
 = 0.1000E+31(WHEN MIN. R.F.=1)  AT K=   0, I=   0, J=   0

 MAXIMUM STEPSIZE WHICH MEETS STABILITY CRITERION OF THE DISPERSION TERM
 = 0.5603E-02(WHEN MIN. R.F.=1)  AT K=   3, I=   2, J=  32
     1 CALLS TO GCG PACKAGE FOR TRANSPORT TIME STEP   3 IN FLOW TIME STEP  96 STRESS PERIOD   2
     9 TOTAL ITERATIONS
 
 SOLVING FOR HEAD 
 FLOW MODEL IS TRANSIENT
 FLOW MODEL CONTAINS CONSTANT-HEAD CELLS


 MAXIMUM STEPSIZE DURING WHICH ANY PARTICLE CANNOT MOVE MORE THAN ONE CELL
 = 0.1187    (WHEN MIN. R.F.=1)  AT K=   3, I=   2, J=  33

 MAXIMUM STEPSIZE WHICH MEETS STABILITY CRITERION OF THE ADVECTION TERM
 (FOR PURE FINITE-DIFFERENCE OPTION, MIXELM=0) 
 = 0.8134E-01(WHEN MIN. R.F.=1)  AT K=   3, I=   2, J=  32


 TOTAL NUMBER OF POINT SOURCES/SINKS PRESENT IN THE FLOW MODEL =   240

 MAXIMUM STEPSIZE WHICH MEETS STABILITY CRITERION OF THE SINK & SOURCE TERM
 = 0.1000E+31(WHEN MIN. R.F.=1)  AT K=   0, I=   0, J=   0

 MAXIMUM STEPSIZE WHICH MEETS STABILITY CRITERION OF THE DISPERSION TERM
 = 0.5603E-02(WHEN MIN. R.F.=1)  AT K=   3, I=   2, J=  32
     1 CALLS TO GCG PACKAGE FOR TRANSPORT TIME STEP   4 IN FLOW TIME STEP  96 STRESS PERIOD   2
     9 TOTAL ITERATIONS
 
 SOLVING FOR HEAD 
 FLOW MODEL IS TRANSIENT
 FLOW MODEL CONTAINS CONSTANT-HEAD CELLS


 MAXIMUM STEPSIZE DURING WHICH ANY PARTICLE CANNOT MOVE MORE THAN ONE CELL
 = 0.1187    (WHEN MIN. R.F.=1)  AT K=   3, I=   2, J=  33

 MAXIMUM STEPSIZE WHICH MEETS STABILITY CRITERION OF THE ADVECTION TERM
 (FOR PURE FINITE-DIFFERENCE OPTION, MIXELM=0) 
 = 0.8134E-01(WHEN MIN. R.F.=1)  AT K=   3, I=   2, J=  32


 TOTAL NUMBER OF POINT SOURCES/SINKS PRESENT IN THE FLOW MODEL =   240

 MAXIMUM STEPSIZE WHICH MEETS STABILITY CRITERION OF THE SINK & SOURCE TERM
 = 0.1000E+31(WHEN MIN. R.F.=1)  AT K=   0, I=   0, J=   0

 MAXIMUM STEPSIZE WHICH MEETS STABILITY CRITERION OF THE DISPERSION TERM
 = 0.5603E-02(WHEN MIN. R.F.=1)  AT K=   3, I=   2, J=  32
     1 CALLS TO GCG PACKAGE FOR TRANSPORT TIME STEP   5 IN FLOW TIME STEP  96 STRESS PERIOD   2
     9 TOTAL ITERATIONS
 
 SOLVING FOR HEAD 
 FLOW MODEL IS TRANSIENT
 FLOW MODEL CONTAINS CONSTANT-HEAD CELLS


 MAXIMUM STEPSIZE DURING WHICH ANY PARTICLE CANNOT MOVE MORE THAN ONE CELL
 = 0.1187    (WHEN MIN. R.F.=1)  AT K=   3, I=   2, J=  33

 MAXIMUM STEPSIZE WHICH MEETS STABILITY CRITERION OF THE ADVECTION TERM
 (FOR PURE FINITE-DIFFERENCE OPTION, MIXELM=0) 
 = 0.8134E-01(WHEN MIN. R.F.=1)  AT K=   3, I=   2, J=  32


 TOTAL NUMBER OF POINT SOURCES/SINKS PRESENT IN THE FLOW MODEL =   240

 MAXIMUM STEPSIZE WHICH MEETS STABILITY CRITERION OF THE SINK & SOURCE TERM
 = 0.1000E+31(WHEN MIN. R.F.=1)  AT K=   0, I=   0, J=   0

 MAXIMUM STEPSIZE WHICH MEETS STABILITY CRITERION OF THE DISPERSION TERM
 = 0.5603E-02(WHEN MIN. R.F.=1)  AT K=   3, I=   2, J=  32
     1 CALLS TO GCG PACKAGE FOR TRANSPORT TIME STEP   6 IN FLOW TIME STEP  96 STRESS PERIOD   2
     9 TOTAL ITERATIONS
 
 SOLVING FOR HEAD 
 FLOW MODEL IS TRANSIENT
 FLOW MODEL CONTAINS CONSTANT-HEAD CELLS


 MAXIMUM STEPSIZE DURING WHICH ANY PARTICLE CANNOT MOVE MORE THAN ONE CELL
 = 0.1187    (WHEN MIN. R.F.=1)  AT K=   3, I=   2, J=  33

 MAXIMUM STEPSIZE WHICH MEETS STABILITY CRITERION OF THE ADVECTION TERM
 (FOR PURE FINITE-DIFFERENCE OPTION, MIXELM=0) 
 = 0.8134E-01(WHEN MIN. R.F.=1)  AT K=   3, I=   2, J=  32


 TOTAL NUMBER OF POINT SOURCES/SINKS PRESENT IN THE FLOW MODEL =   240

 MAXIMUM STEPSIZE WHICH MEETS STABILITY CRITERION OF THE SINK & SOURCE TERM
 = 0.1000E+31(WHEN MIN. R.F.=1)  AT K=   0, I=   0, J=   0

 MAXIMUM STEPSIZE WHICH MEETS STABILITY CRITERION OF THE DISPERSION TERM
 = 0.5603E-02(WHEN MIN. R.F.=1)  AT K=   3, I=   2, J=  32
     1 CALLS TO GCG PACKAGE FOR TRANSPORT TIME STEP   7 IN FLOW TIME STEP  96 STRESS PERIOD   2
     9 TOTAL ITERATIONS
 
 SOLVING FOR HEAD 
 FLOW MODEL IS TRANSIENT
 FLOW MODEL CONTAINS CONSTANT-HEAD CELLS


 MAXIMUM STEPSIZE DURING WHICH ANY PARTICLE CANNOT MOVE MORE THAN ONE CELL
 = 0.1187    (WHEN MIN. R.F.=1)  AT K=   3, I=   2, J=  33

 MAXIMUM STEPSIZE WHICH MEETS STABILITY CRITERION OF THE ADVECTION TERM
 (FOR PURE FINITE-DIFFERENCE OPTION, MIXELM=0) 
 = 0.8134E-01(WHEN MIN. R.F.=1)  AT K=   3, I=   2, J=  32


 TOTAL NUMBER OF POINT SOURCES/SINKS PRESENT IN THE FLOW MODEL =   240

 MAXIMUM STEPSIZE WHICH MEETS STABILITY CRITERION OF THE SINK & SOURCE TERM
 = 0.1000E+31(WHEN MIN. R.F.=1)  AT K=   0, I=   0, J=   0

 MAXIMUM STEPSIZE WHICH MEETS STABILITY CRITERION OF THE DISPERSION TERM
 = 0.5603E-02(WHEN MIN. R.F.=1)  AT K=   3, I=   2, J=  32
     1 CALLS TO GCG PACKAGE FOR TRANSPORT TIME STEP   8 IN FLOW TIME STEP  96 STRESS PERIOD   2
     9 TOTAL ITERATIONS
 
 SOLVING FOR HEAD 
 FLOW MODEL IS TRANSIENT
 FLOW MODEL CONTAINS CONSTANT-HEAD CELLS


 MAXIMUM STEPSIZE DURING WHICH ANY PARTICLE CANNOT MOVE MORE THAN ONE CELL
 = 0.1187    (WHEN MIN. R.F.=1)  AT K=   3, I=   2, J=  33

 MAXIMUM STEPSIZE WHICH MEETS STABILITY CRITERION OF THE ADVECTION TERM
 (FOR PURE FINITE-DIFFERENCE OPTION, MIXELM=0) 
 = 0.8134E-01(WHEN MIN. R.F.=1)  AT K=   3, I=   2, J=  32


 TOTAL NUMBER OF POINT SOURCES/SINKS PRESENT IN THE FLOW MODEL =   240

 MAXIMUM STEPSIZE WHICH MEETS STABILITY CRITERION OF THE SINK & SOURCE TERM
 = 0.1000E+31(WHEN MIN. R.F.=1)  AT K=   0, I=   0, J=   0

 MAXIMUM STEPSIZE WHICH MEETS STABILITY CRITERION OF THE DISPERSION TERM
 = 0.5603E-02(WHEN MIN. R.F.=1)  AT K=   3, I=   2, J=  32
     1 CALLS TO GCG PACKAGE FOR TRANSPORT TIME STEP   9 IN FLOW TIME STEP  96 STRESS PERIOD   2
     9 TOTAL ITERATIONS
 
 SOLVING FOR HEAD 
 FLOW MODEL IS TRANSIENT
 FLOW MODEL CONTAINS CONSTANT-HEAD CELLS


 MAXIMUM STEPSIZE DURING WHICH ANY PARTICLE CANNOT MOVE MORE THAN ONE CELL
 = 0.1187    (WHEN MIN. R.F.=1)  AT K=   3, I=   2, J=  33

 MAXIMUM STEPSIZE WHICH MEETS STABILITY CRITERION OF THE ADVECTION TERM
 (FOR PURE FINITE-DIFFERENCE OPTION, MIXELM=0) 
 = 0.8134E-01(WHEN MIN. R.F.=1)  AT K=   3, I=   2, J=  32


 TOTAL NUMBER OF POINT SOURCES/SINKS PRESENT IN THE FLOW MODEL =   240

 MAXIMUM STEPSIZE WHICH MEETS STABILITY CRITERION OF THE SINK & SOURCE TERM
 = 0.1000E+31(WHEN MIN. R.F.=1)  AT K=   0, I=   0, J=   0

 MAXIMUM STEPSIZE WHICH MEETS STABILITY CRITERION OF THE DISPERSION TERM
 = 0.5603E-02(WHEN MIN. R.F.=1)  AT K=   3, I=   2, J=  32
     1 CALLS TO GCG PACKAGE FOR TRANSPORT TIME STEP  10 IN FLOW TIME STEP  96 STRESS PERIOD   2
     9 TOTAL ITERATIONS



 >>>>>>>>>>>>>>>>>>>>>>>>>>>>>>>>>>>>>>>>>>>>>>>>>>>>>>>FOR COMPONENT NO. 01<<<<<<<<<<<<<<<<<<<<<<<<<<<<<<<<<<<<<<<<<<<<<<<<<<<<<<<


                                            -------------------------------------------
                                                      TRANSPORT STEP NO.   10
                                            -------------------------------------------

 TOTAL ELAPSED TIME SINCE BEGINNING OF SIMULATION =   96.89011    D   
 .....................................................................

                     CUMULATIVE MASS BUDGETS AT END OF TRANSPORT STEP   10, TIME STEP   96, STRESS PERIOD    2
                     ------------------------------------------------------------------------------------------

                                                             IN                           OUT
                                                      ----------------             ----------------
                               CONSTANT CONCENTRATION:    13666.43                   -8615.090    
                                        CONSTANT HEAD:    0.000000                    0.000000    
                               MASS STOR (FLOW MODEL):   0.1328370E-01              -0.3450394E-02
                                MASS STORAGE (SOLUTE):    12.07383                   -5063.422    
                            ---------------------------------------------------------------------------
                                              [TOTAL]:    13678.51     KG            -13678.52     KG  

                                                          NET (IN - OUT):  -0.1188492E-02
                                                   DISCREPANCY (PERCENT):  -0.8688749E-05
 
 SOLVING FOR HEAD 
 FLOW MODEL IS TRANSIENT
 FLOW MODEL CONTAINS CONSTANT-HEAD CELLS


 MAXIMUM STEPSIZE DURING WHICH ANY PARTICLE CANNOT MOVE MORE THAN ONE CELL
 = 0.1187    (WHEN MIN. R.F.=1)  AT K=   3, I=   2, J=  33

 MAXIMUM STEPSIZE WHICH MEETS STABILITY CRITERION OF THE ADVECTION TERM
 (FOR PURE FINITE-DIFFERENCE OPTION, MIXELM=0) 
 = 0.8134E-01(WHEN MIN. R.F.=1)  AT K=   3, I=   2, J=  32


 TOTAL NUMBER OF POINT SOURCES/SINKS PRESENT IN THE FLOW MODEL =   240

 MAXIMUM STEPSIZE WHICH MEETS STABILITY CRITERION OF THE SINK & SOURCE TERM
 = 0.1000E+31(WHEN MIN. R.F.=1)  AT K=   0, I=   0, J=   0

 MAXIMUM STEPSIZE WHICH MEETS STABILITY CRITERION OF THE DISPERSION TERM
 = 0.5603E-02(WHEN MIN. R.F.=1)  AT K=   3, I=   2, J=  32
     1 CALLS TO GCG PACKAGE FOR TRANSPORT TIME STEP  11 IN FLOW TIME STEP  96 STRESS PERIOD   2
     9 TOTAL ITERATIONS
 
 SOLVING FOR HEAD 
 FLOW MODEL IS TRANSIENT
 FLOW MODEL CONTAINS CONSTANT-HEAD CELLS


 MAXIMUM STEPSIZE DURING WHICH ANY PARTICLE CANNOT MOVE MORE THAN ONE CELL
 = 0.1187    (WHEN MIN. R.F.=1)  AT K=   3, I=   2, J=  33

 MAXIMUM STEPSIZE WHICH MEETS STABILITY CRITERION OF THE ADVECTION TERM
 (FOR PURE FINITE-DIFFERENCE OPTION, MIXELM=0) 
 = 0.8134E-01(WHEN MIN. R.F.=1)  AT K=   3, I=   2, J=  32


 TOTAL NUMBER OF POINT SOURCES/SINKS PRESENT IN THE FLOW MODEL =   240

 MAXIMUM STEPSIZE WHICH MEETS STABILITY CRITERION OF THE SINK & SOURCE TERM
 = 0.1000E+31(WHEN MIN. R.F.=1)  AT K=   0, I=   0, J=   0

 MAXIMUM STEPSIZE WHICH MEETS STABILITY CRITERION OF THE DISPERSION TERM
 = 0.5603E-02(WHEN MIN. R.F.=1)  AT K=   3, I=   2, J=  32
     1 CALLS TO GCG PACKAGE FOR TRANSPORT TIME STEP  12 IN FLOW TIME STEP  96 STRESS PERIOD   2
     4 TOTAL ITERATIONS
  MAXIMUM CONCENTRATION CHANGES FOR EACH ITERATION:
  MAX. CHANGE LAYER,ROW,COL MAX. CHANGE LAYER,ROW,COL MAX. CHANGE LAYER,ROW,COL MAX. CHANGE LAYER,ROW,COL MAX. CHANGE LAYER,ROW,COL
 ------------------------------------------------------------------------------------------------------------------------------------
   0.1150E-03 ( 14,  3, 50)  0.3871E-05 (  6,  2, 61)  0.5446E-06 (  5,  2, 57)  0.7317E-07 (  7,  2, 61)


                                          ================================================
                                                         FROM TIME =   97.000     TO    98.000    

 
 SOLVING FOR HEAD 
 FLOW MODEL IS TRANSIENT
 FLOW MODEL CONTAINS CONSTANT-HEAD CELLS


 MAXIMUM STEPSIZE DURING WHICH ANY PARTICLE CANNOT MOVE MORE THAN ONE CELL
 = 0.1187    (WHEN MIN. R.F.=1)  AT K=   3, I=   2, J=  33

 MAXIMUM STEPSIZE WHICH MEETS STABILITY CRITERION OF THE ADVECTION TERM
 (FOR PURE FINITE-DIFFERENCE OPTION, MIXELM=0) 
 = 0.8134E-01(WHEN MIN. R.F.=1)  AT K=   3, I=   2, J=  32


 TOTAL NUMBER OF POINT SOURCES/SINKS PRESENT IN THE FLOW MODEL =   240

 MAXIMUM STEPSIZE WHICH MEETS STABILITY CRITERION OF THE SINK & SOURCE TERM
 = 0.1000E+31(WHEN MIN. R.F.=1)  AT K=   0, I=   0, J=   0

 MAXIMUM STEPSIZE WHICH MEETS STABILITY CRITERION OF THE DISPERSION TERM
 = 0.5603E-02(WHEN MIN. R.F.=1)  AT K=   3, I=   2, J=  32


     1 CALLS TO GCG PACKAGE FOR TRANSPORT TIME STEP   1 IN FLOW TIME STEP  97 STRESS PERIOD   2
     9 TOTAL ITERATIONS

 NO OUTPUT CONTROL FOR STRESS PERIOD    2   TIME STEP  97
 
 SOLVING FOR HEAD 
 FLOW MODEL IS TRANSIENT
 FLOW MODEL CONTAINS CONSTANT-HEAD CELLS


 MAXIMUM STEPSIZE DURING WHICH ANY PARTICLE CANNOT MOVE MORE THAN ONE CELL
 = 0.1187    (WHEN MIN. R.F.=1)  AT K=   3, I=   2, J=  33

 MAXIMUM STEPSIZE WHICH MEETS STABILITY CRITERION OF THE ADVECTION TERM
 (FOR PURE FINITE-DIFFERENCE OPTION, MIXELM=0) 
 = 0.8134E-01(WHEN MIN. R.F.=1)  AT K=   3, I=   2, J=  32


 TOTAL NUMBER OF POINT SOURCES/SINKS PRESENT IN THE FLOW MODEL =   240

 MAXIMUM STEPSIZE WHICH MEETS STABILITY CRITERION OF THE SINK & SOURCE TERM
 = 0.1000E+31(WHEN MIN. R.F.=1)  AT K=   0, I=   0, J=   0

 MAXIMUM STEPSIZE WHICH MEETS STABILITY CRITERION OF THE DISPERSION TERM
 = 0.5603E-02(WHEN MIN. R.F.=1)  AT K=   3, I=   2, J=  32
     1 CALLS TO GCG PACKAGE FOR TRANSPORT TIME STEP   2 IN FLOW TIME STEP  97 STRESS PERIOD   2
     8 TOTAL ITERATIONS
 
 SOLVING FOR HEAD 
 FLOW MODEL IS TRANSIENT
 FLOW MODEL CONTAINS CONSTANT-HEAD CELLS


 MAXIMUM STEPSIZE DURING WHICH ANY PARTICLE CANNOT MOVE MORE THAN ONE CELL
 = 0.1187    (WHEN MIN. R.F.=1)  AT K=   3, I=   2, J=  33

 MAXIMUM STEPSIZE WHICH MEETS STABILITY CRITERION OF THE ADVECTION TERM
 (FOR PURE FINITE-DIFFERENCE OPTION, MIXELM=0) 
 = 0.8134E-01(WHEN MIN. R.F.=1)  AT K=   3, I=   2, J=  32


 TOTAL NUMBER OF POINT SOURCES/SINKS PRESENT IN THE FLOW MODEL =   240

 MAXIMUM STEPSIZE WHICH MEETS STABILITY CRITERION OF THE SINK & SOURCE TERM
 = 0.1000E+31(WHEN MIN. R.F.=1)  AT K=   0, I=   0, J=   0

 MAXIMUM STEPSIZE WHICH MEETS STABILITY CRITERION OF THE DISPERSION TERM
 = 0.5603E-02(WHEN MIN. R.F.=1)  AT K=   3, I=   2, J=  32
     1 CALLS TO GCG PACKAGE FOR TRANSPORT TIME STEP   3 IN FLOW TIME STEP  97 STRESS PERIOD   2
     9 TOTAL ITERATIONS
 
 SOLVING FOR HEAD 
 FLOW MODEL IS TRANSIENT
 FLOW MODEL CONTAINS CONSTANT-HEAD CELLS


 MAXIMUM STEPSIZE DURING WHICH ANY PARTICLE CANNOT MOVE MORE THAN ONE CELL
 = 0.1187    (WHEN MIN. R.F.=1)  AT K=   3, I=   2, J=  33

 MAXIMUM STEPSIZE WHICH MEETS STABILITY CRITERION OF THE ADVECTION TERM
 (FOR PURE FINITE-DIFFERENCE OPTION, MIXELM=0) 
 = 0.8134E-01(WHEN MIN. R.F.=1)  AT K=   3, I=   2, J=  32


 TOTAL NUMBER OF POINT SOURCES/SINKS PRESENT IN THE FLOW MODEL =   240

 MAXIMUM STEPSIZE WHICH MEETS STABILITY CRITERION OF THE SINK & SOURCE TERM
 = 0.1000E+31(WHEN MIN. R.F.=1)  AT K=   0, I=   0, J=   0

 MAXIMUM STEPSIZE WHICH MEETS STABILITY CRITERION OF THE DISPERSION TERM
 = 0.5603E-02(WHEN MIN. R.F.=1)  AT K=   3, I=   2, J=  32
     1 CALLS TO GCG PACKAGE FOR TRANSPORT TIME STEP   4 IN FLOW TIME STEP  97 STRESS PERIOD   2
     9 TOTAL ITERATIONS
 
 SOLVING FOR HEAD 
 FLOW MODEL IS TRANSIENT
 FLOW MODEL CONTAINS CONSTANT-HEAD CELLS


 MAXIMUM STEPSIZE DURING WHICH ANY PARTICLE CANNOT MOVE MORE THAN ONE CELL
 = 0.1187    (WHEN MIN. R.F.=1)  AT K=   3, I=   2, J=  33

 MAXIMUM STEPSIZE WHICH MEETS STABILITY CRITERION OF THE ADVECTION TERM
 (FOR PURE FINITE-DIFFERENCE OPTION, MIXELM=0) 
 = 0.8134E-01(WHEN MIN. R.F.=1)  AT K=   3, I=   2, J=  32


 TOTAL NUMBER OF POINT SOURCES/SINKS PRESENT IN THE FLOW MODEL =   240

 MAXIMUM STEPSIZE WHICH MEETS STABILITY CRITERION OF THE SINK & SOURCE TERM
 = 0.1000E+31(WHEN MIN. R.F.=1)  AT K=   0, I=   0, J=   0

 MAXIMUM STEPSIZE WHICH MEETS STABILITY CRITERION OF THE DISPERSION TERM
 = 0.5603E-02(WHEN MIN. R.F.=1)  AT K=   3, I=   2, J=  32
     1 CALLS TO GCG PACKAGE FOR TRANSPORT TIME STEP   5 IN FLOW TIME STEP  97 STRESS PERIOD   2
     8 TOTAL ITERATIONS
 
 SOLVING FOR HEAD 
 FLOW MODEL IS TRANSIENT
 FLOW MODEL CONTAINS CONSTANT-HEAD CELLS


 MAXIMUM STEPSIZE DURING WHICH ANY PARTICLE CANNOT MOVE MORE THAN ONE CELL
 = 0.1187    (WHEN MIN. R.F.=1)  AT K=   3, I=   2, J=  33

 MAXIMUM STEPSIZE WHICH MEETS STABILITY CRITERION OF THE ADVECTION TERM
 (FOR PURE FINITE-DIFFERENCE OPTION, MIXELM=0) 
 = 0.8134E-01(WHEN MIN. R.F.=1)  AT K=   3, I=   2, J=  32


 TOTAL NUMBER OF POINT SOURCES/SINKS PRESENT IN THE FLOW MODEL =   240

 MAXIMUM STEPSIZE WHICH MEETS STABILITY CRITERION OF THE SINK & SOURCE TERM
 = 0.1000E+31(WHEN MIN. R.F.=1)  AT K=   0, I=   0, J=   0

 MAXIMUM STEPSIZE WHICH MEETS STABILITY CRITERION OF THE DISPERSION TERM
 = 0.5603E-02(WHEN MIN. R.F.=1)  AT K=   3, I=   2, J=  32
     1 CALLS TO GCG PACKAGE FOR TRANSPORT TIME STEP   6 IN FLOW TIME STEP  97 STRESS PERIOD   2
     9 TOTAL ITERATIONS
 
 SOLVING FOR HEAD 
 FLOW MODEL IS TRANSIENT
 FLOW MODEL CONTAINS CONSTANT-HEAD CELLS


 MAXIMUM STEPSIZE DURING WHICH ANY PARTICLE CANNOT MOVE MORE THAN ONE CELL
 = 0.1187    (WHEN MIN. R.F.=1)  AT K=   3, I=   2, J=  33

 MAXIMUM STEPSIZE WHICH MEETS STABILITY CRITERION OF THE ADVECTION TERM
 (FOR PURE FINITE-DIFFERENCE OPTION, MIXELM=0) 
 = 0.8134E-01(WHEN MIN. R.F.=1)  AT K=   3, I=   2, J=  32


 TOTAL NUMBER OF POINT SOURCES/SINKS PRESENT IN THE FLOW MODEL =   240

 MAXIMUM STEPSIZE WHICH MEETS STABILITY CRITERION OF THE SINK & SOURCE TERM
 = 0.1000E+31(WHEN MIN. R.F.=1)  AT K=   0, I=   0, J=   0

 MAXIMUM STEPSIZE WHICH MEETS STABILITY CRITERION OF THE DISPERSION TERM
 = 0.5603E-02(WHEN MIN. R.F.=1)  AT K=   3, I=   2, J=  32
     1 CALLS TO GCG PACKAGE FOR TRANSPORT TIME STEP   7 IN FLOW TIME STEP  97 STRESS PERIOD   2
     9 TOTAL ITERATIONS
 
 SOLVING FOR HEAD 
 FLOW MODEL IS TRANSIENT
 FLOW MODEL CONTAINS CONSTANT-HEAD CELLS


 MAXIMUM STEPSIZE DURING WHICH ANY PARTICLE CANNOT MOVE MORE THAN ONE CELL
 = 0.1187    (WHEN MIN. R.F.=1)  AT K=   3, I=   2, J=  33

 MAXIMUM STEPSIZE WHICH MEETS STABILITY CRITERION OF THE ADVECTION TERM
 (FOR PURE FINITE-DIFFERENCE OPTION, MIXELM=0) 
 = 0.8134E-01(WHEN MIN. R.F.=1)  AT K=   3, I=   2, J=  32


 TOTAL NUMBER OF POINT SOURCES/SINKS PRESENT IN THE FLOW MODEL =   240

 MAXIMUM STEPSIZE WHICH MEETS STABILITY CRITERION OF THE SINK & SOURCE TERM
 = 0.1000E+31(WHEN MIN. R.F.=1)  AT K=   0, I=   0, J=   0

 MAXIMUM STEPSIZE WHICH MEETS STABILITY CRITERION OF THE DISPERSION TERM
 = 0.5603E-02(WHEN MIN. R.F.=1)  AT K=   3, I=   2, J=  32
     1 CALLS TO GCG PACKAGE FOR TRANSPORT TIME STEP   8 IN FLOW TIME STEP  97 STRESS PERIOD   2
     9 TOTAL ITERATIONS
 
 SOLVING FOR HEAD 
 FLOW MODEL IS TRANSIENT
 FLOW MODEL CONTAINS CONSTANT-HEAD CELLS


 MAXIMUM STEPSIZE DURING WHICH ANY PARTICLE CANNOT MOVE MORE THAN ONE CELL
 = 0.1187    (WHEN MIN. R.F.=1)  AT K=   3, I=   2, J=  33

 MAXIMUM STEPSIZE WHICH MEETS STABILITY CRITERION OF THE ADVECTION TERM
 (FOR PURE FINITE-DIFFERENCE OPTION, MIXELM=0) 
 = 0.8134E-01(WHEN MIN. R.F.=1)  AT K=   3, I=   2, J=  32


 TOTAL NUMBER OF POINT SOURCES/SINKS PRESENT IN THE FLOW MODEL =   240

 MAXIMUM STEPSIZE WHICH MEETS STABILITY CRITERION OF THE SINK & SOURCE TERM
 = 0.1000E+31(WHEN MIN. R.F.=1)  AT K=   0, I=   0, J=   0

 MAXIMUM STEPSIZE WHICH MEETS STABILITY CRITERION OF THE DISPERSION TERM
 = 0.5603E-02(WHEN MIN. R.F.=1)  AT K=   3, I=   2, J=  32
     1 CALLS TO GCG PACKAGE FOR TRANSPORT TIME STEP   9 IN FLOW TIME STEP  97 STRESS PERIOD   2
     9 TOTAL ITERATIONS
 
 SOLVING FOR HEAD 
 FLOW MODEL IS TRANSIENT
 FLOW MODEL CONTAINS CONSTANT-HEAD CELLS


 MAXIMUM STEPSIZE DURING WHICH ANY PARTICLE CANNOT MOVE MORE THAN ONE CELL
 = 0.1187    (WHEN MIN. R.F.=1)  AT K=   3, I=   2, J=  33

 MAXIMUM STEPSIZE WHICH MEETS STABILITY CRITERION OF THE ADVECTION TERM
 (FOR PURE FINITE-DIFFERENCE OPTION, MIXELM=0) 
 = 0.8134E-01(WHEN MIN. R.F.=1)  AT K=   3, I=   2, J=  32


 TOTAL NUMBER OF POINT SOURCES/SINKS PRESENT IN THE FLOW MODEL =   240

 MAXIMUM STEPSIZE WHICH MEETS STABILITY CRITERION OF THE SINK & SOURCE TERM
 = 0.1000E+31(WHEN MIN. R.F.=1)  AT K=   0, I=   0, J=   0

 MAXIMUM STEPSIZE WHICH MEETS STABILITY CRITERION OF THE DISPERSION TERM
 = 0.5603E-02(WHEN MIN. R.F.=1)  AT K=   3, I=   2, J=  32
     1 CALLS TO GCG PACKAGE FOR TRANSPORT TIME STEP  10 IN FLOW TIME STEP  97 STRESS PERIOD   2
     9 TOTAL ITERATIONS



 >>>>>>>>>>>>>>>>>>>>>>>>>>>>>>>>>>>>>>>>>>>>>>>>>>>>>>>FOR COMPONENT NO. 01<<<<<<<<<<<<<<<<<<<<<<<<<<<<<<<<<<<<<<<<<<<<<<<<<<<<<<<


                                            -------------------------------------------
                                                      TRANSPORT STEP NO.   10
                                            -------------------------------------------

 TOTAL ELAPSED TIME SINCE BEGINNING OF SIMULATION =   97.89010    D   
 .....................................................................

                     CUMULATIVE MASS BUDGETS AT END OF TRANSPORT STEP   10, TIME STEP   97, STRESS PERIOD    2
                     ------------------------------------------------------------------------------------------

                                                             IN                           OUT
                                                      ----------------             ----------------
                               CONSTANT CONCENTRATION:    13769.66                   -8708.188    
                                        CONSTANT HEAD:    0.000000                    0.000000    
                               MASS STOR (FLOW MODEL):   0.1329629E-01              -0.3451737E-02
                                MASS STORAGE (SOLUTE):    12.19301                   -5073.672    
                            ---------------------------------------------------------------------------
                                              [TOTAL]:    13781.86     KG            -13781.86     KG  

                                                          NET (IN - OUT):  -0.9491888E-03
                                                   DISCREPANCY (PERCENT):  -0.6887231E-05
 
 SOLVING FOR HEAD 
 FLOW MODEL IS TRANSIENT
 FLOW MODEL CONTAINS CONSTANT-HEAD CELLS


 MAXIMUM STEPSIZE DURING WHICH ANY PARTICLE CANNOT MOVE MORE THAN ONE CELL
 = 0.1187    (WHEN MIN. R.F.=1)  AT K=   3, I=   2, J=  33

 MAXIMUM STEPSIZE WHICH MEETS STABILITY CRITERION OF THE ADVECTION TERM
 (FOR PURE FINITE-DIFFERENCE OPTION, MIXELM=0) 
 = 0.8134E-01(WHEN MIN. R.F.=1)  AT K=   3, I=   2, J=  32


 TOTAL NUMBER OF POINT SOURCES/SINKS PRESENT IN THE FLOW MODEL =   240

 MAXIMUM STEPSIZE WHICH MEETS STABILITY CRITERION OF THE SINK & SOURCE TERM
 = 0.1000E+31(WHEN MIN. R.F.=1)  AT K=   0, I=   0, J=   0

 MAXIMUM STEPSIZE WHICH MEETS STABILITY CRITERION OF THE DISPERSION TERM
 = 0.5603E-02(WHEN MIN. R.F.=1)  AT K=   3, I=   2, J=  32
     1 CALLS TO GCG PACKAGE FOR TRANSPORT TIME STEP  11 IN FLOW TIME STEP  97 STRESS PERIOD   2
     9 TOTAL ITERATIONS
 
 SOLVING FOR HEAD 
 FLOW MODEL IS TRANSIENT
 FLOW MODEL CONTAINS CONSTANT-HEAD CELLS


 MAXIMUM STEPSIZE DURING WHICH ANY PARTICLE CANNOT MOVE MORE THAN ONE CELL
 = 0.1187    (WHEN MIN. R.F.=1)  AT K=   3, I=   2, J=  33

 MAXIMUM STEPSIZE WHICH MEETS STABILITY CRITERION OF THE ADVECTION TERM
 (FOR PURE FINITE-DIFFERENCE OPTION, MIXELM=0) 
 = 0.8134E-01(WHEN MIN. R.F.=1)  AT K=   3, I=   2, J=  32


 TOTAL NUMBER OF POINT SOURCES/SINKS PRESENT IN THE FLOW MODEL =   240

 MAXIMUM STEPSIZE WHICH MEETS STABILITY CRITERION OF THE SINK & SOURCE TERM
 = 0.1000E+31(WHEN MIN. R.F.=1)  AT K=   0, I=   0, J=   0

 MAXIMUM STEPSIZE WHICH MEETS STABILITY CRITERION OF THE DISPERSION TERM
 = 0.5603E-02(WHEN MIN. R.F.=1)  AT K=   3, I=   2, J=  32
     1 CALLS TO GCG PACKAGE FOR TRANSPORT TIME STEP  12 IN FLOW TIME STEP  97 STRESS PERIOD   2
     4 TOTAL ITERATIONS
  MAXIMUM CONCENTRATION CHANGES FOR EACH ITERATION:
  MAX. CHANGE LAYER,ROW,COL MAX. CHANGE LAYER,ROW,COL MAX. CHANGE LAYER,ROW,COL MAX. CHANGE LAYER,ROW,COL MAX. CHANGE LAYER,ROW,COL
 ------------------------------------------------------------------------------------------------------------------------------------
   0.1144E-03 ( 14,  3, 50)  0.3786E-05 (  6,  2, 61)  0.5324E-06 (  5,  2, 57)  0.6984E-07 (  7,  2, 61)


                                          ================================================
                                                         FROM TIME =   98.000     TO    99.000    

 
 SOLVING FOR HEAD 
 FLOW MODEL IS TRANSIENT
 FLOW MODEL CONTAINS CONSTANT-HEAD CELLS


 MAXIMUM STEPSIZE DURING WHICH ANY PARTICLE CANNOT MOVE MORE THAN ONE CELL
 = 0.1187    (WHEN MIN. R.F.=1)  AT K=   3, I=   2, J=  33

 MAXIMUM STEPSIZE WHICH MEETS STABILITY CRITERION OF THE ADVECTION TERM
 (FOR PURE FINITE-DIFFERENCE OPTION, MIXELM=0) 
 = 0.8134E-01(WHEN MIN. R.F.=1)  AT K=   3, I=   2, J=  32


 TOTAL NUMBER OF POINT SOURCES/SINKS PRESENT IN THE FLOW MODEL =   240

 MAXIMUM STEPSIZE WHICH MEETS STABILITY CRITERION OF THE SINK & SOURCE TERM
 = 0.1000E+31(WHEN MIN. R.F.=1)  AT K=   0, I=   0, J=   0

 MAXIMUM STEPSIZE WHICH MEETS STABILITY CRITERION OF THE DISPERSION TERM
 = 0.5603E-02(WHEN MIN. R.F.=1)  AT K=   3, I=   2, J=  32


     1 CALLS TO GCG PACKAGE FOR TRANSPORT TIME STEP   1 IN FLOW TIME STEP  98 STRESS PERIOD   2
     8 TOTAL ITERATIONS

 NO OUTPUT CONTROL FOR STRESS PERIOD    2   TIME STEP  98
 
 SOLVING FOR HEAD 
 FLOW MODEL IS TRANSIENT
 FLOW MODEL CONTAINS CONSTANT-HEAD CELLS


 MAXIMUM STEPSIZE DURING WHICH ANY PARTICLE CANNOT MOVE MORE THAN ONE CELL
 = 0.1187    (WHEN MIN. R.F.=1)  AT K=   3, I=   2, J=  33

 MAXIMUM STEPSIZE WHICH MEETS STABILITY CRITERION OF THE ADVECTION TERM
 (FOR PURE FINITE-DIFFERENCE OPTION, MIXELM=0) 
 = 0.8134E-01(WHEN MIN. R.F.=1)  AT K=   3, I=   2, J=  32


 TOTAL NUMBER OF POINT SOURCES/SINKS PRESENT IN THE FLOW MODEL =   240

 MAXIMUM STEPSIZE WHICH MEETS STABILITY CRITERION OF THE SINK & SOURCE TERM
 = 0.1000E+31(WHEN MIN. R.F.=1)  AT K=   0, I=   0, J=   0

 MAXIMUM STEPSIZE WHICH MEETS STABILITY CRITERION OF THE DISPERSION TERM
 = 0.5603E-02(WHEN MIN. R.F.=1)  AT K=   3, I=   2, J=  32
     1 CALLS TO GCG PACKAGE FOR TRANSPORT TIME STEP   2 IN FLOW TIME STEP  98 STRESS PERIOD   2
     9 TOTAL ITERATIONS
 
 SOLVING FOR HEAD 
 FLOW MODEL IS TRANSIENT
 FLOW MODEL CONTAINS CONSTANT-HEAD CELLS


 MAXIMUM STEPSIZE DURING WHICH ANY PARTICLE CANNOT MOVE MORE THAN ONE CELL
 = 0.1187    (WHEN MIN. R.F.=1)  AT K=   3, I=   2, J=  33

 MAXIMUM STEPSIZE WHICH MEETS STABILITY CRITERION OF THE ADVECTION TERM
 (FOR PURE FINITE-DIFFERENCE OPTION, MIXELM=0) 
 = 0.8134E-01(WHEN MIN. R.F.=1)  AT K=   3, I=   2, J=  32


 TOTAL NUMBER OF POINT SOURCES/SINKS PRESENT IN THE FLOW MODEL =   240

 MAXIMUM STEPSIZE WHICH MEETS STABILITY CRITERION OF THE SINK & SOURCE TERM
 = 0.1000E+31(WHEN MIN. R.F.=1)  AT K=   0, I=   0, J=   0

 MAXIMUM STEPSIZE WHICH MEETS STABILITY CRITERION OF THE DISPERSION TERM
 = 0.5603E-02(WHEN MIN. R.F.=1)  AT K=   3, I=   2, J=  32
     1 CALLS TO GCG PACKAGE FOR TRANSPORT TIME STEP   3 IN FLOW TIME STEP  98 STRESS PERIOD   2
     9 TOTAL ITERATIONS
 
 SOLVING FOR HEAD 
 FLOW MODEL IS TRANSIENT
 FLOW MODEL CONTAINS CONSTANT-HEAD CELLS


 MAXIMUM STEPSIZE DURING WHICH ANY PARTICLE CANNOT MOVE MORE THAN ONE CELL
 = 0.1187    (WHEN MIN. R.F.=1)  AT K=   3, I=   2, J=  33

 MAXIMUM STEPSIZE WHICH MEETS STABILITY CRITERION OF THE ADVECTION TERM
 (FOR PURE FINITE-DIFFERENCE OPTION, MIXELM=0) 
 = 0.8134E-01(WHEN MIN. R.F.=1)  AT K=   3, I=   2, J=  32


 TOTAL NUMBER OF POINT SOURCES/SINKS PRESENT IN THE FLOW MODEL =   240

 MAXIMUM STEPSIZE WHICH MEETS STABILITY CRITERION OF THE SINK & SOURCE TERM
 = 0.1000E+31(WHEN MIN. R.F.=1)  AT K=   0, I=   0, J=   0

 MAXIMUM STEPSIZE WHICH MEETS STABILITY CRITERION OF THE DISPERSION TERM
 = 0.5603E-02(WHEN MIN. R.F.=1)  AT K=   3, I=   2, J=  32
     1 CALLS TO GCG PACKAGE FOR TRANSPORT TIME STEP   4 IN FLOW TIME STEP  98 STRESS PERIOD   2
     8 TOTAL ITERATIONS
 
 SOLVING FOR HEAD 
 FLOW MODEL IS TRANSIENT
 FLOW MODEL CONTAINS CONSTANT-HEAD CELLS


 MAXIMUM STEPSIZE DURING WHICH ANY PARTICLE CANNOT MOVE MORE THAN ONE CELL
 = 0.1187    (WHEN MIN. R.F.=1)  AT K=   3, I=   2, J=  33

 MAXIMUM STEPSIZE WHICH MEETS STABILITY CRITERION OF THE ADVECTION TERM
 (FOR PURE FINITE-DIFFERENCE OPTION, MIXELM=0) 
 = 0.8134E-01(WHEN MIN. R.F.=1)  AT K=   3, I=   2, J=  32


 TOTAL NUMBER OF POINT SOURCES/SINKS PRESENT IN THE FLOW MODEL =   240

 MAXIMUM STEPSIZE WHICH MEETS STABILITY CRITERION OF THE SINK & SOURCE TERM
 = 0.1000E+31(WHEN MIN. R.F.=1)  AT K=   0, I=   0, J=   0

 MAXIMUM STEPSIZE WHICH MEETS STABILITY CRITERION OF THE DISPERSION TERM
 = 0.5603E-02(WHEN MIN. R.F.=1)  AT K=   3, I=   2, J=  32
     1 CALLS TO GCG PACKAGE FOR TRANSPORT TIME STEP   5 IN FLOW TIME STEP  98 STRESS PERIOD   2
     9 TOTAL ITERATIONS
 
 SOLVING FOR HEAD 
 FLOW MODEL IS TRANSIENT
 FLOW MODEL CONTAINS CONSTANT-HEAD CELLS


 MAXIMUM STEPSIZE DURING WHICH ANY PARTICLE CANNOT MOVE MORE THAN ONE CELL
 = 0.1187    (WHEN MIN. R.F.=1)  AT K=   3, I=   2, J=  33

 MAXIMUM STEPSIZE WHICH MEETS STABILITY CRITERION OF THE ADVECTION TERM
 (FOR PURE FINITE-DIFFERENCE OPTION, MIXELM=0) 
 = 0.8134E-01(WHEN MIN. R.F.=1)  AT K=   3, I=   2, J=  32


 TOTAL NUMBER OF POINT SOURCES/SINKS PRESENT IN THE FLOW MODEL =   240

 MAXIMUM STEPSIZE WHICH MEETS STABILITY CRITERION OF THE SINK & SOURCE TERM
 = 0.1000E+31(WHEN MIN. R.F.=1)  AT K=   0, I=   0, J=   0

 MAXIMUM STEPSIZE WHICH MEETS STABILITY CRITERION OF THE DISPERSION TERM
 = 0.5603E-02(WHEN MIN. R.F.=1)  AT K=   3, I=   2, J=  32
     1 CALLS TO GCG PACKAGE FOR TRANSPORT TIME STEP   6 IN FLOW TIME STEP  98 STRESS PERIOD   2
     9 TOTAL ITERATIONS
 
 SOLVING FOR HEAD 
 FLOW MODEL IS TRANSIENT
 FLOW MODEL CONTAINS CONSTANT-HEAD CELLS


 MAXIMUM STEPSIZE DURING WHICH ANY PARTICLE CANNOT MOVE MORE THAN ONE CELL
 = 0.1187    (WHEN MIN. R.F.=1)  AT K=   3, I=   2, J=  33

 MAXIMUM STEPSIZE WHICH MEETS STABILITY CRITERION OF THE ADVECTION TERM
 (FOR PURE FINITE-DIFFERENCE OPTION, MIXELM=0) 
 = 0.8134E-01(WHEN MIN. R.F.=1)  AT K=   3, I=   2, J=  32


 TOTAL NUMBER OF POINT SOURCES/SINKS PRESENT IN THE FLOW MODEL =   240

 MAXIMUM STEPSIZE WHICH MEETS STABILITY CRITERION OF THE SINK & SOURCE TERM
 = 0.1000E+31(WHEN MIN. R.F.=1)  AT K=   0, I=   0, J=   0

 MAXIMUM STEPSIZE WHICH MEETS STABILITY CRITERION OF THE DISPERSION TERM
 = 0.5603E-02(WHEN MIN. R.F.=1)  AT K=   3, I=   2, J=  32
     1 CALLS TO GCG PACKAGE FOR TRANSPORT TIME STEP   7 IN FLOW TIME STEP  98 STRESS PERIOD   2
     8 TOTAL ITERATIONS
 
 SOLVING FOR HEAD 
 FLOW MODEL IS TRANSIENT
 FLOW MODEL CONTAINS CONSTANT-HEAD CELLS


 MAXIMUM STEPSIZE DURING WHICH ANY PARTICLE CANNOT MOVE MORE THAN ONE CELL
 = 0.1187    (WHEN MIN. R.F.=1)  AT K=   3, I=   2, J=  33

 MAXIMUM STEPSIZE WHICH MEETS STABILITY CRITERION OF THE ADVECTION TERM
 (FOR PURE FINITE-DIFFERENCE OPTION, MIXELM=0) 
 = 0.8134E-01(WHEN MIN. R.F.=1)  AT K=   3, I=   2, J=  32


 TOTAL NUMBER OF POINT SOURCES/SINKS PRESENT IN THE FLOW MODEL =   240

 MAXIMUM STEPSIZE WHICH MEETS STABILITY CRITERION OF THE SINK & SOURCE TERM
 = 0.1000E+31(WHEN MIN. R.F.=1)  AT K=   0, I=   0, J=   0

 MAXIMUM STEPSIZE WHICH MEETS STABILITY CRITERION OF THE DISPERSION TERM
 = 0.5603E-02(WHEN MIN. R.F.=1)  AT K=   3, I=   2, J=  32
     1 CALLS TO GCG PACKAGE FOR TRANSPORT TIME STEP   8 IN FLOW TIME STEP  98 STRESS PERIOD   2
     9 TOTAL ITERATIONS
 
 SOLVING FOR HEAD 
 FLOW MODEL IS TRANSIENT
 FLOW MODEL CONTAINS CONSTANT-HEAD CELLS


 MAXIMUM STEPSIZE DURING WHICH ANY PARTICLE CANNOT MOVE MORE THAN ONE CELL
 = 0.1187    (WHEN MIN. R.F.=1)  AT K=   3, I=   2, J=  33

 MAXIMUM STEPSIZE WHICH MEETS STABILITY CRITERION OF THE ADVECTION TERM
 (FOR PURE FINITE-DIFFERENCE OPTION, MIXELM=0) 
 = 0.8134E-01(WHEN MIN. R.F.=1)  AT K=   3, I=   2, J=  32


 TOTAL NUMBER OF POINT SOURCES/SINKS PRESENT IN THE FLOW MODEL =   240

 MAXIMUM STEPSIZE WHICH MEETS STABILITY CRITERION OF THE SINK & SOURCE TERM
 = 0.1000E+31(WHEN MIN. R.F.=1)  AT K=   0, I=   0, J=   0

 MAXIMUM STEPSIZE WHICH MEETS STABILITY CRITERION OF THE DISPERSION TERM
 = 0.5603E-02(WHEN MIN. R.F.=1)  AT K=   3, I=   2, J=  32
     1 CALLS TO GCG PACKAGE FOR TRANSPORT TIME STEP   9 IN FLOW TIME STEP  98 STRESS PERIOD   2
     9 TOTAL ITERATIONS
 
 SOLVING FOR HEAD 
 FLOW MODEL IS TRANSIENT
 FLOW MODEL CONTAINS CONSTANT-HEAD CELLS


 MAXIMUM STEPSIZE DURING WHICH ANY PARTICLE CANNOT MOVE MORE THAN ONE CELL
 = 0.1187    (WHEN MIN. R.F.=1)  AT K=   3, I=   2, J=  33

 MAXIMUM STEPSIZE WHICH MEETS STABILITY CRITERION OF THE ADVECTION TERM
 (FOR PURE FINITE-DIFFERENCE OPTION, MIXELM=0) 
 = 0.8134E-01(WHEN MIN. R.F.=1)  AT K=   3, I=   2, J=  32


 TOTAL NUMBER OF POINT SOURCES/SINKS PRESENT IN THE FLOW MODEL =   240

 MAXIMUM STEPSIZE WHICH MEETS STABILITY CRITERION OF THE SINK & SOURCE TERM
 = 0.1000E+31(WHEN MIN. R.F.=1)  AT K=   0, I=   0, J=   0

 MAXIMUM STEPSIZE WHICH MEETS STABILITY CRITERION OF THE DISPERSION TERM
 = 0.5603E-02(WHEN MIN. R.F.=1)  AT K=   3, I=   2, J=  32
     1 CALLS TO GCG PACKAGE FOR TRANSPORT TIME STEP  10 IN FLOW TIME STEP  98 STRESS PERIOD   2
     8 TOTAL ITERATIONS



 >>>>>>>>>>>>>>>>>>>>>>>>>>>>>>>>>>>>>>>>>>>>>>>>>>>>>>>FOR COMPONENT NO. 01<<<<<<<<<<<<<<<<<<<<<<<<<<<<<<<<<<<<<<<<<<<<<<<<<<<<<<<


                                            -------------------------------------------
                                                      TRANSPORT STEP NO.   10
                                            -------------------------------------------

 TOTAL ELAPSED TIME SINCE BEGINNING OF SIMULATION =   98.89009    D   
 .....................................................................

                     CUMULATIVE MASS BUDGETS AT END OF TRANSPORT STEP   10, TIME STEP   98, STRESS PERIOD    2
                     ------------------------------------------------------------------------------------------

                                                             IN                           OUT
                                                      ----------------             ----------------
                               CONSTANT CONCENTRATION:    13872.81                   -8801.292    
                                        CONSTANT HEAD:    0.000000                    0.000000    
                               MASS STOR (FLOW MODEL):   0.1330881E-01              -0.3453042E-02
                                MASS STORAGE (SOLUTE):    12.30953                   -5083.833    
                            ---------------------------------------------------------------------------
                                              [TOTAL]:    13885.13     KG            -13885.13     KG  

                                                          NET (IN - OUT):  -0.7121646E-03
                                                   DISCREPANCY (PERCENT):  -0.5128974E-05
 
 SOLVING FOR HEAD 
 FLOW MODEL IS TRANSIENT
 FLOW MODEL CONTAINS CONSTANT-HEAD CELLS


 MAXIMUM STEPSIZE DURING WHICH ANY PARTICLE CANNOT MOVE MORE THAN ONE CELL
 = 0.1187    (WHEN MIN. R.F.=1)  AT K=   3, I=   2, J=  33

 MAXIMUM STEPSIZE WHICH MEETS STABILITY CRITERION OF THE ADVECTION TERM
 (FOR PURE FINITE-DIFFERENCE OPTION, MIXELM=0) 
 = 0.8134E-01(WHEN MIN. R.F.=1)  AT K=   3, I=   2, J=  32


 TOTAL NUMBER OF POINT SOURCES/SINKS PRESENT IN THE FLOW MODEL =   240

 MAXIMUM STEPSIZE WHICH MEETS STABILITY CRITERION OF THE SINK & SOURCE TERM
 = 0.1000E+31(WHEN MIN. R.F.=1)  AT K=   0, I=   0, J=   0

 MAXIMUM STEPSIZE WHICH MEETS STABILITY CRITERION OF THE DISPERSION TERM
 = 0.5603E-02(WHEN MIN. R.F.=1)  AT K=   3, I=   2, J=  32
     1 CALLS TO GCG PACKAGE FOR TRANSPORT TIME STEP  11 IN FLOW TIME STEP  98 STRESS PERIOD   2
     9 TOTAL ITERATIONS
 
 SOLVING FOR HEAD 
 FLOW MODEL IS TRANSIENT
 FLOW MODEL CONTAINS CONSTANT-HEAD CELLS


 MAXIMUM STEPSIZE DURING WHICH ANY PARTICLE CANNOT MOVE MORE THAN ONE CELL
 = 0.1187    (WHEN MIN. R.F.=1)  AT K=   3, I=   2, J=  33

 MAXIMUM STEPSIZE WHICH MEETS STABILITY CRITERION OF THE ADVECTION TERM
 (FOR PURE FINITE-DIFFERENCE OPTION, MIXELM=0) 
 = 0.8134E-01(WHEN MIN. R.F.=1)  AT K=   3, I=   2, J=  32


 TOTAL NUMBER OF POINT SOURCES/SINKS PRESENT IN THE FLOW MODEL =   240

 MAXIMUM STEPSIZE WHICH MEETS STABILITY CRITERION OF THE SINK & SOURCE TERM
 = 0.1000E+31(WHEN MIN. R.F.=1)  AT K=   0, I=   0, J=   0

 MAXIMUM STEPSIZE WHICH MEETS STABILITY CRITERION OF THE DISPERSION TERM
 = 0.5603E-02(WHEN MIN. R.F.=1)  AT K=   3, I=   2, J=  32
     1 CALLS TO GCG PACKAGE FOR TRANSPORT TIME STEP  12 IN FLOW TIME STEP  98 STRESS PERIOD   2
     4 TOTAL ITERATIONS
  MAXIMUM CONCENTRATION CHANGES FOR EACH ITERATION:
  MAX. CHANGE LAYER,ROW,COL MAX. CHANGE LAYER,ROW,COL MAX. CHANGE LAYER,ROW,COL MAX. CHANGE LAYER,ROW,COL MAX. CHANGE LAYER,ROW,COL
 ------------------------------------------------------------------------------------------------------------------------------------
   0.1138E-03 ( 14,  3, 50)  0.3704E-05 (  6,  2, 61)  0.5196E-06 (  5,  2, 57)  0.6878E-07 (  7,  2, 61)


                                          ================================================
                                                         FROM TIME =   99.000     TO   100.000    

 
 SOLVING FOR HEAD 
 FLOW MODEL IS TRANSIENT
 FLOW MODEL CONTAINS CONSTANT-HEAD CELLS


 MAXIMUM STEPSIZE DURING WHICH ANY PARTICLE CANNOT MOVE MORE THAN ONE CELL
 = 0.1187    (WHEN MIN. R.F.=1)  AT K=   3, I=   2, J=  33

 MAXIMUM STEPSIZE WHICH MEETS STABILITY CRITERION OF THE ADVECTION TERM
 (FOR PURE FINITE-DIFFERENCE OPTION, MIXELM=0) 
 = 0.8134E-01(WHEN MIN. R.F.=1)  AT K=   3, I=   2, J=  32


 TOTAL NUMBER OF POINT SOURCES/SINKS PRESENT IN THE FLOW MODEL =   240

 MAXIMUM STEPSIZE WHICH MEETS STABILITY CRITERION OF THE SINK & SOURCE TERM
 = 0.1000E+31(WHEN MIN. R.F.=1)  AT K=   0, I=   0, J=   0

 MAXIMUM STEPSIZE WHICH MEETS STABILITY CRITERION OF THE DISPERSION TERM
 = 0.5603E-02(WHEN MIN. R.F.=1)  AT K=   3, I=   2, J=  32


     1 CALLS TO GCG PACKAGE FOR TRANSPORT TIME STEP   1 IN FLOW TIME STEP  99 STRESS PERIOD   2
     9 TOTAL ITERATIONS

 NO OUTPUT CONTROL FOR STRESS PERIOD    2   TIME STEP  99
 
 SOLVING FOR HEAD 
 FLOW MODEL IS TRANSIENT
 FLOW MODEL CONTAINS CONSTANT-HEAD CELLS


 MAXIMUM STEPSIZE DURING WHICH ANY PARTICLE CANNOT MOVE MORE THAN ONE CELL
 = 0.1187    (WHEN MIN. R.F.=1)  AT K=   3, I=   2, J=  33

 MAXIMUM STEPSIZE WHICH MEETS STABILITY CRITERION OF THE ADVECTION TERM
 (FOR PURE FINITE-DIFFERENCE OPTION, MIXELM=0) 
 = 0.8134E-01(WHEN MIN. R.F.=1)  AT K=   3, I=   2, J=  32


 TOTAL NUMBER OF POINT SOURCES/SINKS PRESENT IN THE FLOW MODEL =   240

 MAXIMUM STEPSIZE WHICH MEETS STABILITY CRITERION OF THE SINK & SOURCE TERM
 = 0.1000E+31(WHEN MIN. R.F.=1)  AT K=   0, I=   0, J=   0

 MAXIMUM STEPSIZE WHICH MEETS STABILITY CRITERION OF THE DISPERSION TERM
 = 0.5603E-02(WHEN MIN. R.F.=1)  AT K=   3, I=   2, J=  32
     1 CALLS TO GCG PACKAGE FOR TRANSPORT TIME STEP   2 IN FLOW TIME STEP  99 STRESS PERIOD   2
     8 TOTAL ITERATIONS
 
 SOLVING FOR HEAD 
 FLOW MODEL IS TRANSIENT
 FLOW MODEL CONTAINS CONSTANT-HEAD CELLS


 MAXIMUM STEPSIZE DURING WHICH ANY PARTICLE CANNOT MOVE MORE THAN ONE CELL
 = 0.1187    (WHEN MIN. R.F.=1)  AT K=   3, I=   2, J=  33

 MAXIMUM STEPSIZE WHICH MEETS STABILITY CRITERION OF THE ADVECTION TERM
 (FOR PURE FINITE-DIFFERENCE OPTION, MIXELM=0) 
 = 0.8134E-01(WHEN MIN. R.F.=1)  AT K=   3, I=   2, J=  32


 TOTAL NUMBER OF POINT SOURCES/SINKS PRESENT IN THE FLOW MODEL =   240

 MAXIMUM STEPSIZE WHICH MEETS STABILITY CRITERION OF THE SINK & SOURCE TERM
 = 0.1000E+31(WHEN MIN. R.F.=1)  AT K=   0, I=   0, J=   0

 MAXIMUM STEPSIZE WHICH MEETS STABILITY CRITERION OF THE DISPERSION TERM
 = 0.5603E-02(WHEN MIN. R.F.=1)  AT K=   3, I=   2, J=  32
     1 CALLS TO GCG PACKAGE FOR TRANSPORT TIME STEP   3 IN FLOW TIME STEP  99 STRESS PERIOD   2
     9 TOTAL ITERATIONS
 
 SOLVING FOR HEAD 
 FLOW MODEL IS TRANSIENT
 FLOW MODEL CONTAINS CONSTANT-HEAD CELLS


 MAXIMUM STEPSIZE DURING WHICH ANY PARTICLE CANNOT MOVE MORE THAN ONE CELL
 = 0.1187    (WHEN MIN. R.F.=1)  AT K=   3, I=   2, J=  33

 MAXIMUM STEPSIZE WHICH MEETS STABILITY CRITERION OF THE ADVECTION TERM
 (FOR PURE FINITE-DIFFERENCE OPTION, MIXELM=0) 
 = 0.8134E-01(WHEN MIN. R.F.=1)  AT K=   3, I=   2, J=  32


 TOTAL NUMBER OF POINT SOURCES/SINKS PRESENT IN THE FLOW MODEL =   240

 MAXIMUM STEPSIZE WHICH MEETS STABILITY CRITERION OF THE SINK & SOURCE TERM
 = 0.1000E+31(WHEN MIN. R.F.=1)  AT K=   0, I=   0, J=   0

 MAXIMUM STEPSIZE WHICH MEETS STABILITY CRITERION OF THE DISPERSION TERM
 = 0.5603E-02(WHEN MIN. R.F.=1)  AT K=   3, I=   2, J=  32
     1 CALLS TO GCG PACKAGE FOR TRANSPORT TIME STEP   4 IN FLOW TIME STEP  99 STRESS PERIOD   2
     9 TOTAL ITERATIONS
 
 SOLVING FOR HEAD 
 FLOW MODEL IS TRANSIENT
 FLOW MODEL CONTAINS CONSTANT-HEAD CELLS


 MAXIMUM STEPSIZE DURING WHICH ANY PARTICLE CANNOT MOVE MORE THAN ONE CELL
 = 0.1187    (WHEN MIN. R.F.=1)  AT K=   3, I=   2, J=  33

 MAXIMUM STEPSIZE WHICH MEETS STABILITY CRITERION OF THE ADVECTION TERM
 (FOR PURE FINITE-DIFFERENCE OPTION, MIXELM=0) 
 = 0.8134E-01(WHEN MIN. R.F.=1)  AT K=   3, I=   2, J=  32


 TOTAL NUMBER OF POINT SOURCES/SINKS PRESENT IN THE FLOW MODEL =   240

 MAXIMUM STEPSIZE WHICH MEETS STABILITY CRITERION OF THE SINK & SOURCE TERM
 = 0.1000E+31(WHEN MIN. R.F.=1)  AT K=   0, I=   0, J=   0

 MAXIMUM STEPSIZE WHICH MEETS STABILITY CRITERION OF THE DISPERSION TERM
 = 0.5603E-02(WHEN MIN. R.F.=1)  AT K=   3, I=   2, J=  32
     1 CALLS TO GCG PACKAGE FOR TRANSPORT TIME STEP   5 IN FLOW TIME STEP  99 STRESS PERIOD   2
     9 TOTAL ITERATIONS
 
 SOLVING FOR HEAD 
 FLOW MODEL IS TRANSIENT
 FLOW MODEL CONTAINS CONSTANT-HEAD CELLS


 MAXIMUM STEPSIZE DURING WHICH ANY PARTICLE CANNOT MOVE MORE THAN ONE CELL
 = 0.1187    (WHEN MIN. R.F.=1)  AT K=   3, I=   2, J=  33

 MAXIMUM STEPSIZE WHICH MEETS STABILITY CRITERION OF THE ADVECTION TERM
 (FOR PURE FINITE-DIFFERENCE OPTION, MIXELM=0) 
 = 0.8134E-01(WHEN MIN. R.F.=1)  AT K=   3, I=   2, J=  32


 TOTAL NUMBER OF POINT SOURCES/SINKS PRESENT IN THE FLOW MODEL =   240

 MAXIMUM STEPSIZE WHICH MEETS STABILITY CRITERION OF THE SINK & SOURCE TERM
 = 0.1000E+31(WHEN MIN. R.F.=1)  AT K=   0, I=   0, J=   0

 MAXIMUM STEPSIZE WHICH MEETS STABILITY CRITERION OF THE DISPERSION TERM
 = 0.5603E-02(WHEN MIN. R.F.=1)  AT K=   3, I=   2, J=  32
     1 CALLS TO GCG PACKAGE FOR TRANSPORT TIME STEP   6 IN FLOW TIME STEP  99 STRESS PERIOD   2
     9 TOTAL ITERATIONS
 
 SOLVING FOR HEAD 
 FLOW MODEL IS TRANSIENT
 FLOW MODEL CONTAINS CONSTANT-HEAD CELLS


 MAXIMUM STEPSIZE DURING WHICH ANY PARTICLE CANNOT MOVE MORE THAN ONE CELL
 = 0.1187    (WHEN MIN. R.F.=1)  AT K=   3, I=   2, J=  33

 MAXIMUM STEPSIZE WHICH MEETS STABILITY CRITERION OF THE ADVECTION TERM
 (FOR PURE FINITE-DIFFERENCE OPTION, MIXELM=0) 
 = 0.8134E-01(WHEN MIN. R.F.=1)  AT K=   3, I=   2, J=  32


 TOTAL NUMBER OF POINT SOURCES/SINKS PRESENT IN THE FLOW MODEL =   240

 MAXIMUM STEPSIZE WHICH MEETS STABILITY CRITERION OF THE SINK & SOURCE TERM
 = 0.1000E+31(WHEN MIN. R.F.=1)  AT K=   0, I=   0, J=   0

 MAXIMUM STEPSIZE WHICH MEETS STABILITY CRITERION OF THE DISPERSION TERM
 = 0.5603E-02(WHEN MIN. R.F.=1)  AT K=   3, I=   2, J=  32
     1 CALLS TO GCG PACKAGE FOR TRANSPORT TIME STEP   7 IN FLOW TIME STEP  99 STRESS PERIOD   2
     9 TOTAL ITERATIONS
 
 SOLVING FOR HEAD 
 FLOW MODEL IS TRANSIENT
 FLOW MODEL CONTAINS CONSTANT-HEAD CELLS


 MAXIMUM STEPSIZE DURING WHICH ANY PARTICLE CANNOT MOVE MORE THAN ONE CELL
 = 0.1187    (WHEN MIN. R.F.=1)  AT K=   3, I=   2, J=  33

 MAXIMUM STEPSIZE WHICH MEETS STABILITY CRITERION OF THE ADVECTION TERM
 (FOR PURE FINITE-DIFFERENCE OPTION, MIXELM=0) 
 = 0.8134E-01(WHEN MIN. R.F.=1)  AT K=   3, I=   2, J=  32


 TOTAL NUMBER OF POINT SOURCES/SINKS PRESENT IN THE FLOW MODEL =   240

 MAXIMUM STEPSIZE WHICH MEETS STABILITY CRITERION OF THE SINK & SOURCE TERM
 = 0.1000E+31(WHEN MIN. R.F.=1)  AT K=   0, I=   0, J=   0

 MAXIMUM STEPSIZE WHICH MEETS STABILITY CRITERION OF THE DISPERSION TERM
 = 0.5603E-02(WHEN MIN. R.F.=1)  AT K=   3, I=   2, J=  32
     1 CALLS TO GCG PACKAGE FOR TRANSPORT TIME STEP   8 IN FLOW TIME STEP  99 STRESS PERIOD   2
     9 TOTAL ITERATIONS
 
 SOLVING FOR HEAD 
 FLOW MODEL IS TRANSIENT
 FLOW MODEL CONTAINS CONSTANT-HEAD CELLS


 MAXIMUM STEPSIZE DURING WHICH ANY PARTICLE CANNOT MOVE MORE THAN ONE CELL
 = 0.1187    (WHEN MIN. R.F.=1)  AT K=   3, I=   2, J=  33

 MAXIMUM STEPSIZE WHICH MEETS STABILITY CRITERION OF THE ADVECTION TERM
 (FOR PURE FINITE-DIFFERENCE OPTION, MIXELM=0) 
 = 0.8134E-01(WHEN MIN. R.F.=1)  AT K=   3, I=   2, J=  32


 TOTAL NUMBER OF POINT SOURCES/SINKS PRESENT IN THE FLOW MODEL =   240

 MAXIMUM STEPSIZE WHICH MEETS STABILITY CRITERION OF THE SINK & SOURCE TERM
 = 0.1000E+31(WHEN MIN. R.F.=1)  AT K=   0, I=   0, J=   0

 MAXIMUM STEPSIZE WHICH MEETS STABILITY CRITERION OF THE DISPERSION TERM
 = 0.5603E-02(WHEN MIN. R.F.=1)  AT K=   3, I=   2, J=  32
     1 CALLS TO GCG PACKAGE FOR TRANSPORT TIME STEP   9 IN FLOW TIME STEP  99 STRESS PERIOD   2
     9 TOTAL ITERATIONS
 
 SOLVING FOR HEAD 
 FLOW MODEL IS TRANSIENT
 FLOW MODEL CONTAINS CONSTANT-HEAD CELLS


 MAXIMUM STEPSIZE DURING WHICH ANY PARTICLE CANNOT MOVE MORE THAN ONE CELL
 = 0.1187    (WHEN MIN. R.F.=1)  AT K=   3, I=   2, J=  33

 MAXIMUM STEPSIZE WHICH MEETS STABILITY CRITERION OF THE ADVECTION TERM
 (FOR PURE FINITE-DIFFERENCE OPTION, MIXELM=0) 
 = 0.8134E-01(WHEN MIN. R.F.=1)  AT K=   3, I=   2, J=  32


 TOTAL NUMBER OF POINT SOURCES/SINKS PRESENT IN THE FLOW MODEL =   240

 MAXIMUM STEPSIZE WHICH MEETS STABILITY CRITERION OF THE SINK & SOURCE TERM
 = 0.1000E+31(WHEN MIN. R.F.=1)  AT K=   0, I=   0, J=   0

 MAXIMUM STEPSIZE WHICH MEETS STABILITY CRITERION OF THE DISPERSION TERM
 = 0.5603E-02(WHEN MIN. R.F.=1)  AT K=   3, I=   2, J=  32
     1 CALLS TO GCG PACKAGE FOR TRANSPORT TIME STEP  10 IN FLOW TIME STEP  99 STRESS PERIOD   2
     9 TOTAL ITERATIONS



 >>>>>>>>>>>>>>>>>>>>>>>>>>>>>>>>>>>>>>>>>>>>>>>>>>>>>>>FOR COMPONENT NO. 01<<<<<<<<<<<<<<<<<<<<<<<<<<<<<<<<<<<<<<<<<<<<<<<<<<<<<<<


                                            -------------------------------------------
                                                      TRANSPORT STEP NO.   10
                                            -------------------------------------------

 TOTAL ELAPSED TIME SINCE BEGINNING OF SIMULATION =   99.89008    D   
 .....................................................................

                     CUMULATIVE MASS BUDGETS AT END OF TRANSPORT STEP   10, TIME STEP   99, STRESS PERIOD    2
                     ------------------------------------------------------------------------------------------

                                                             IN                           OUT
                                                      ----------------             ----------------
                               CONSTANT CONCENTRATION:    13975.88                   -8894.402    
                                        CONSTANT HEAD:    0.000000                    0.000000    
                               MASS STOR (FLOW MODEL):   0.1332125E-01              -0.3454310E-02
                                MASS STORAGE (SOLUTE):    12.42270                   -5093.908    
                            ---------------------------------------------------------------------------
                                              [TOTAL]:    13988.31     KG            -13988.31     KG  

                                                          NET (IN - OUT):  -0.5851683E-03
                                                   DISCREPANCY (PERCENT):  -0.4183266E-05
 
 SOLVING FOR HEAD 
 FLOW MODEL IS TRANSIENT
 FLOW MODEL CONTAINS CONSTANT-HEAD CELLS


 MAXIMUM STEPSIZE DURING WHICH ANY PARTICLE CANNOT MOVE MORE THAN ONE CELL
 = 0.1187    (WHEN MIN. R.F.=1)  AT K=   3, I=   2, J=  33

 MAXIMUM STEPSIZE WHICH MEETS STABILITY CRITERION OF THE ADVECTION TERM
 (FOR PURE FINITE-DIFFERENCE OPTION, MIXELM=0) 
 = 0.8134E-01(WHEN MIN. R.F.=1)  AT K=   3, I=   2, J=  32


 TOTAL NUMBER OF POINT SOURCES/SINKS PRESENT IN THE FLOW MODEL =   240

 MAXIMUM STEPSIZE WHICH MEETS STABILITY CRITERION OF THE SINK & SOURCE TERM
 = 0.1000E+31(WHEN MIN. R.F.=1)  AT K=   0, I=   0, J=   0

 MAXIMUM STEPSIZE WHICH MEETS STABILITY CRITERION OF THE DISPERSION TERM
 = 0.5603E-02(WHEN MIN. R.F.=1)  AT K=   3, I=   2, J=  32
     1 CALLS TO GCG PACKAGE FOR TRANSPORT TIME STEP  11 IN FLOW TIME STEP  99 STRESS PERIOD   2
     9 TOTAL ITERATIONS
 
 SOLVING FOR HEAD 
 FLOW MODEL IS TRANSIENT
 FLOW MODEL CONTAINS CONSTANT-HEAD CELLS


 MAXIMUM STEPSIZE DURING WHICH ANY PARTICLE CANNOT MOVE MORE THAN ONE CELL
 = 0.1187    (WHEN MIN. R.F.=1)  AT K=   3, I=   2, J=  33

 MAXIMUM STEPSIZE WHICH MEETS STABILITY CRITERION OF THE ADVECTION TERM
 (FOR PURE FINITE-DIFFERENCE OPTION, MIXELM=0) 
 = 0.8134E-01(WHEN MIN. R.F.=1)  AT K=   3, I=   2, J=  32


 TOTAL NUMBER OF POINT SOURCES/SINKS PRESENT IN THE FLOW MODEL =   240

 MAXIMUM STEPSIZE WHICH MEETS STABILITY CRITERION OF THE SINK & SOURCE TERM
 = 0.1000E+31(WHEN MIN. R.F.=1)  AT K=   0, I=   0, J=   0

 MAXIMUM STEPSIZE WHICH MEETS STABILITY CRITERION OF THE DISPERSION TERM
 = 0.5603E-02(WHEN MIN. R.F.=1)  AT K=   3, I=   2, J=  32
     1 CALLS TO GCG PACKAGE FOR TRANSPORT TIME STEP  12 IN FLOW TIME STEP  99 STRESS PERIOD   2
     4 TOTAL ITERATIONS
  MAXIMUM CONCENTRATION CHANGES FOR EACH ITERATION:
  MAX. CHANGE LAYER,ROW,COL MAX. CHANGE LAYER,ROW,COL MAX. CHANGE LAYER,ROW,COL MAX. CHANGE LAYER,ROW,COL MAX. CHANGE LAYER,ROW,COL
 ------------------------------------------------------------------------------------------------------------------------------------
   0.1131E-03 ( 14,  3, 50)  0.3623E-05 (  6,  2, 61)  0.5085E-06 (  5,  2, 57)  0.6670E-07 (  7,  2, 61)


                                          ================================================
                                                         FROM TIME =  100.000     TO    101.00    

 
 SOLVING FOR HEAD 
 FLOW MODEL IS TRANSIENT
 FLOW MODEL CONTAINS CONSTANT-HEAD CELLS


 MAXIMUM STEPSIZE DURING WHICH ANY PARTICLE CANNOT MOVE MORE THAN ONE CELL
 = 0.1187    (WHEN MIN. R.F.=1)  AT K=   3, I=   2, J=  33

 MAXIMUM STEPSIZE WHICH MEETS STABILITY CRITERION OF THE ADVECTION TERM
 (FOR PURE FINITE-DIFFERENCE OPTION, MIXELM=0) 
 = 0.8134E-01(WHEN MIN. R.F.=1)  AT K=   3, I=   2, J=  32


 TOTAL NUMBER OF POINT SOURCES/SINKS PRESENT IN THE FLOW MODEL =   240

 MAXIMUM STEPSIZE WHICH MEETS STABILITY CRITERION OF THE SINK & SOURCE TERM
 = 0.1000E+31(WHEN MIN. R.F.=1)  AT K=   0, I=   0, J=   0

 MAXIMUM STEPSIZE WHICH MEETS STABILITY CRITERION OF THE DISPERSION TERM
 = 0.5603E-02(WHEN MIN. R.F.=1)  AT K=   3, I=   2, J=  32


     1 CALLS TO GCG PACKAGE FOR TRANSPORT TIME STEP   1 IN FLOW TIME STEP 100 STRESS PERIOD   2
     9 TOTAL ITERATIONS

 NO OUTPUT CONTROL FOR STRESS PERIOD    2   TIME STEP 100
 
 SOLVING FOR HEAD 
 FLOW MODEL IS TRANSIENT
 FLOW MODEL CONTAINS CONSTANT-HEAD CELLS


 MAXIMUM STEPSIZE DURING WHICH ANY PARTICLE CANNOT MOVE MORE THAN ONE CELL
 = 0.1187    (WHEN MIN. R.F.=1)  AT K=   3, I=   2, J=  33

 MAXIMUM STEPSIZE WHICH MEETS STABILITY CRITERION OF THE ADVECTION TERM
 (FOR PURE FINITE-DIFFERENCE OPTION, MIXELM=0) 
 = 0.8134E-01(WHEN MIN. R.F.=1)  AT K=   3, I=   2, J=  32


 TOTAL NUMBER OF POINT SOURCES/SINKS PRESENT IN THE FLOW MODEL =   240

 MAXIMUM STEPSIZE WHICH MEETS STABILITY CRITERION OF THE SINK & SOURCE TERM
 = 0.1000E+31(WHEN MIN. R.F.=1)  AT K=   0, I=   0, J=   0

 MAXIMUM STEPSIZE WHICH MEETS STABILITY CRITERION OF THE DISPERSION TERM
 = 0.5603E-02(WHEN MIN. R.F.=1)  AT K=   3, I=   2, J=  32
     1 CALLS TO GCG PACKAGE FOR TRANSPORT TIME STEP   2 IN FLOW TIME STEP 100 STRESS PERIOD   2
     9 TOTAL ITERATIONS
 
 SOLVING FOR HEAD 
 FLOW MODEL IS TRANSIENT
 FLOW MODEL CONTAINS CONSTANT-HEAD CELLS


 MAXIMUM STEPSIZE DURING WHICH ANY PARTICLE CANNOT MOVE MORE THAN ONE CELL
 = 0.1187    (WHEN MIN. R.F.=1)  AT K=   3, I=   2, J=  33

 MAXIMUM STEPSIZE WHICH MEETS STABILITY CRITERION OF THE ADVECTION TERM
 (FOR PURE FINITE-DIFFERENCE OPTION, MIXELM=0) 
 = 0.8134E-01(WHEN MIN. R.F.=1)  AT K=   3, I=   2, J=  32


 TOTAL NUMBER OF POINT SOURCES/SINKS PRESENT IN THE FLOW MODEL =   240

 MAXIMUM STEPSIZE WHICH MEETS STABILITY CRITERION OF THE SINK & SOURCE TERM
 = 0.1000E+31(WHEN MIN. R.F.=1)  AT K=   0, I=   0, J=   0

 MAXIMUM STEPSIZE WHICH MEETS STABILITY CRITERION OF THE DISPERSION TERM
 = 0.5603E-02(WHEN MIN. R.F.=1)  AT K=   3, I=   2, J=  32
     1 CALLS TO GCG PACKAGE FOR TRANSPORT TIME STEP   3 IN FLOW TIME STEP 100 STRESS PERIOD   2
     8 TOTAL ITERATIONS
 
 SOLVING FOR HEAD 
 FLOW MODEL IS TRANSIENT
 FLOW MODEL CONTAINS CONSTANT-HEAD CELLS


 MAXIMUM STEPSIZE DURING WHICH ANY PARTICLE CANNOT MOVE MORE THAN ONE CELL
 = 0.1187    (WHEN MIN. R.F.=1)  AT K=   3, I=   2, J=  33

 MAXIMUM STEPSIZE WHICH MEETS STABILITY CRITERION OF THE ADVECTION TERM
 (FOR PURE FINITE-DIFFERENCE OPTION, MIXELM=0) 
 = 0.8134E-01(WHEN MIN. R.F.=1)  AT K=   3, I=   2, J=  32


 TOTAL NUMBER OF POINT SOURCES/SINKS PRESENT IN THE FLOW MODEL =   240

 MAXIMUM STEPSIZE WHICH MEETS STABILITY CRITERION OF THE SINK & SOURCE TERM
 = 0.1000E+31(WHEN MIN. R.F.=1)  AT K=   0, I=   0, J=   0

 MAXIMUM STEPSIZE WHICH MEETS STABILITY CRITERION OF THE DISPERSION TERM
 = 0.5603E-02(WHEN MIN. R.F.=1)  AT K=   3, I=   2, J=  32
     1 CALLS TO GCG PACKAGE FOR TRANSPORT TIME STEP   4 IN FLOW TIME STEP 100 STRESS PERIOD   2
     9 TOTAL ITERATIONS
 
 SOLVING FOR HEAD 
 FLOW MODEL IS TRANSIENT
 FLOW MODEL CONTAINS CONSTANT-HEAD CELLS


 MAXIMUM STEPSIZE DURING WHICH ANY PARTICLE CANNOT MOVE MORE THAN ONE CELL
 = 0.1187    (WHEN MIN. R.F.=1)  AT K=   3, I=   2, J=  33

 MAXIMUM STEPSIZE WHICH MEETS STABILITY CRITERION OF THE ADVECTION TERM
 (FOR PURE FINITE-DIFFERENCE OPTION, MIXELM=0) 
 = 0.8134E-01(WHEN MIN. R.F.=1)  AT K=   3, I=   2, J=  32


 TOTAL NUMBER OF POINT SOURCES/SINKS PRESENT IN THE FLOW MODEL =   240

 MAXIMUM STEPSIZE WHICH MEETS STABILITY CRITERION OF THE SINK & SOURCE TERM
 = 0.1000E+31(WHEN MIN. R.F.=1)  AT K=   0, I=   0, J=   0

 MAXIMUM STEPSIZE WHICH MEETS STABILITY CRITERION OF THE DISPERSION TERM
 = 0.5603E-02(WHEN MIN. R.F.=1)  AT K=   3, I=   2, J=  32
     1 CALLS TO GCG PACKAGE FOR TRANSPORT TIME STEP   5 IN FLOW TIME STEP 100 STRESS PERIOD   2
     9 TOTAL ITERATIONS
 
 SOLVING FOR HEAD 
 FLOW MODEL IS TRANSIENT
 FLOW MODEL CONTAINS CONSTANT-HEAD CELLS


 MAXIMUM STEPSIZE DURING WHICH ANY PARTICLE CANNOT MOVE MORE THAN ONE CELL
 = 0.1187    (WHEN MIN. R.F.=1)  AT K=   3, I=   2, J=  33

 MAXIMUM STEPSIZE WHICH MEETS STABILITY CRITERION OF THE ADVECTION TERM
 (FOR PURE FINITE-DIFFERENCE OPTION, MIXELM=0) 
 = 0.8134E-01(WHEN MIN. R.F.=1)  AT K=   3, I=   2, J=  32


 TOTAL NUMBER OF POINT SOURCES/SINKS PRESENT IN THE FLOW MODEL =   240

 MAXIMUM STEPSIZE WHICH MEETS STABILITY CRITERION OF THE SINK & SOURCE TERM
 = 0.1000E+31(WHEN MIN. R.F.=1)  AT K=   0, I=   0, J=   0

 MAXIMUM STEPSIZE WHICH MEETS STABILITY CRITERION OF THE DISPERSION TERM
 = 0.5603E-02(WHEN MIN. R.F.=1)  AT K=   3, I=   2, J=  32
     1 CALLS TO GCG PACKAGE FOR TRANSPORT TIME STEP   6 IN FLOW TIME STEP 100 STRESS PERIOD   2
     8 TOTAL ITERATIONS
 
 SOLVING FOR HEAD 
 FLOW MODEL IS TRANSIENT
 FLOW MODEL CONTAINS CONSTANT-HEAD CELLS


 MAXIMUM STEPSIZE DURING WHICH ANY PARTICLE CANNOT MOVE MORE THAN ONE CELL
 = 0.1187    (WHEN MIN. R.F.=1)  AT K=   3, I=   2, J=  33

 MAXIMUM STEPSIZE WHICH MEETS STABILITY CRITERION OF THE ADVECTION TERM
 (FOR PURE FINITE-DIFFERENCE OPTION, MIXELM=0) 
 = 0.8134E-01(WHEN MIN. R.F.=1)  AT K=   3, I=   2, J=  32


 TOTAL NUMBER OF POINT SOURCES/SINKS PRESENT IN THE FLOW MODEL =   240

 MAXIMUM STEPSIZE WHICH MEETS STABILITY CRITERION OF THE SINK & SOURCE TERM
 = 0.1000E+31(WHEN MIN. R.F.=1)  AT K=   0, I=   0, J=   0

 MAXIMUM STEPSIZE WHICH MEETS STABILITY CRITERION OF THE DISPERSION TERM
 = 0.5603E-02(WHEN MIN. R.F.=1)  AT K=   3, I=   2, J=  32
     1 CALLS TO GCG PACKAGE FOR TRANSPORT TIME STEP   7 IN FLOW TIME STEP 100 STRESS PERIOD   2
     9 TOTAL ITERATIONS
 
 SOLVING FOR HEAD 
 FLOW MODEL IS TRANSIENT
 FLOW MODEL CONTAINS CONSTANT-HEAD CELLS


 MAXIMUM STEPSIZE DURING WHICH ANY PARTICLE CANNOT MOVE MORE THAN ONE CELL
 = 0.1187    (WHEN MIN. R.F.=1)  AT K=   3, I=   2, J=  33

 MAXIMUM STEPSIZE WHICH MEETS STABILITY CRITERION OF THE ADVECTION TERM
 (FOR PURE FINITE-DIFFERENCE OPTION, MIXELM=0) 
 = 0.8134E-01(WHEN MIN. R.F.=1)  AT K=   3, I=   2, J=  32


 TOTAL NUMBER OF POINT SOURCES/SINKS PRESENT IN THE FLOW MODEL =   240

 MAXIMUM STEPSIZE WHICH MEETS STABILITY CRITERION OF THE SINK & SOURCE TERM
 = 0.1000E+31(WHEN MIN. R.F.=1)  AT K=   0, I=   0, J=   0

 MAXIMUM STEPSIZE WHICH MEETS STABILITY CRITERION OF THE DISPERSION TERM
 = 0.5603E-02(WHEN MIN. R.F.=1)  AT K=   3, I=   2, J=  32
     1 CALLS TO GCG PACKAGE FOR TRANSPORT TIME STEP   8 IN FLOW TIME STEP 100 STRESS PERIOD   2
     8 TOTAL ITERATIONS
 
 SOLVING FOR HEAD 
 FLOW MODEL IS TRANSIENT
 FLOW MODEL CONTAINS CONSTANT-HEAD CELLS


 MAXIMUM STEPSIZE DURING WHICH ANY PARTICLE CANNOT MOVE MORE THAN ONE CELL
 = 0.1187    (WHEN MIN. R.F.=1)  AT K=   3, I=   2, J=  33

 MAXIMUM STEPSIZE WHICH MEETS STABILITY CRITERION OF THE ADVECTION TERM
 (FOR PURE FINITE-DIFFERENCE OPTION, MIXELM=0) 
 = 0.8134E-01(WHEN MIN. R.F.=1)  AT K=   3, I=   2, J=  32


 TOTAL NUMBER OF POINT SOURCES/SINKS PRESENT IN THE FLOW MODEL =   240

 MAXIMUM STEPSIZE WHICH MEETS STABILITY CRITERION OF THE SINK & SOURCE TERM
 = 0.1000E+31(WHEN MIN. R.F.=1)  AT K=   0, I=   0, J=   0

 MAXIMUM STEPSIZE WHICH MEETS STABILITY CRITERION OF THE DISPERSION TERM
 = 0.5603E-02(WHEN MIN. R.F.=1)  AT K=   3, I=   2, J=  32
     1 CALLS TO GCG PACKAGE FOR TRANSPORT TIME STEP   9 IN FLOW TIME STEP 100 STRESS PERIOD   2
     9 TOTAL ITERATIONS
 
 SOLVING FOR HEAD 
 FLOW MODEL IS TRANSIENT
 FLOW MODEL CONTAINS CONSTANT-HEAD CELLS


 MAXIMUM STEPSIZE DURING WHICH ANY PARTICLE CANNOT MOVE MORE THAN ONE CELL
 = 0.1187    (WHEN MIN. R.F.=1)  AT K=   3, I=   2, J=  33

 MAXIMUM STEPSIZE WHICH MEETS STABILITY CRITERION OF THE ADVECTION TERM
 (FOR PURE FINITE-DIFFERENCE OPTION, MIXELM=0) 
 = 0.8134E-01(WHEN MIN. R.F.=1)  AT K=   3, I=   2, J=  32


 TOTAL NUMBER OF POINT SOURCES/SINKS PRESENT IN THE FLOW MODEL =   240

 MAXIMUM STEPSIZE WHICH MEETS STABILITY CRITERION OF THE SINK & SOURCE TERM
 = 0.1000E+31(WHEN MIN. R.F.=1)  AT K=   0, I=   0, J=   0

 MAXIMUM STEPSIZE WHICH MEETS STABILITY CRITERION OF THE DISPERSION TERM
 = 0.5603E-02(WHEN MIN. R.F.=1)  AT K=   3, I=   2, J=  32
     1 CALLS TO GCG PACKAGE FOR TRANSPORT TIME STEP  10 IN FLOW TIME STEP 100 STRESS PERIOD   2
     9 TOTAL ITERATIONS



 >>>>>>>>>>>>>>>>>>>>>>>>>>>>>>>>>>>>>>>>>>>>>>>>>>>>>>>FOR COMPONENT NO. 01<<<<<<<<<<<<<<<<<<<<<<<<<<<<<<<<<<<<<<<<<<<<<<<<<<<<<<<


                                            -------------------------------------------
                                                      TRANSPORT STEP NO.   10
                                            -------------------------------------------

 TOTAL ELAPSED TIME SINCE BEGINNING OF SIMULATION =   100.8901    D   
 .....................................................................

                     CUMULATIVE MASS BUDGETS AT END OF TRANSPORT STEP   10, TIME STEP  100, STRESS PERIOD    2
                     ------------------------------------------------------------------------------------------

                                                             IN                           OUT
                                                      ----------------             ----------------
                               CONSTANT CONCENTRATION:    14078.87                   -8987.519    
                                        CONSTANT HEAD:    0.000000                    0.000000    
                               MASS STOR (FLOW MODEL):   0.1333363E-01              -0.3455544E-02
                                MASS STORAGE (SOLUTE):    12.53216                   -5103.897    
                            ---------------------------------------------------------------------------
                                              [TOTAL]:    14091.42     KG            -14091.42     KG  

                                                          NET (IN - OUT):  -0.4670186E-03
                                                   DISCREPANCY (PERCENT):  -0.3314206E-05
 
 SOLVING FOR HEAD 
 FLOW MODEL IS TRANSIENT
 FLOW MODEL CONTAINS CONSTANT-HEAD CELLS


 MAXIMUM STEPSIZE DURING WHICH ANY PARTICLE CANNOT MOVE MORE THAN ONE CELL
 = 0.1187    (WHEN MIN. R.F.=1)  AT K=   3, I=   2, J=  33

 MAXIMUM STEPSIZE WHICH MEETS STABILITY CRITERION OF THE ADVECTION TERM
 (FOR PURE FINITE-DIFFERENCE OPTION, MIXELM=0) 
 = 0.8134E-01(WHEN MIN. R.F.=1)  AT K=   3, I=   2, J=  32


 TOTAL NUMBER OF POINT SOURCES/SINKS PRESENT IN THE FLOW MODEL =   240

 MAXIMUM STEPSIZE WHICH MEETS STABILITY CRITERION OF THE SINK & SOURCE TERM
 = 0.1000E+31(WHEN MIN. R.F.=1)  AT K=   0, I=   0, J=   0

 MAXIMUM STEPSIZE WHICH MEETS STABILITY CRITERION OF THE DISPERSION TERM
 = 0.5603E-02(WHEN MIN. R.F.=1)  AT K=   3, I=   2, J=  32
     1 CALLS TO GCG PACKAGE FOR TRANSPORT TIME STEP  11 IN FLOW TIME STEP 100 STRESS PERIOD   2
     9 TOTAL ITERATIONS
 
 SOLVING FOR HEAD 
 FLOW MODEL IS TRANSIENT
 FLOW MODEL CONTAINS CONSTANT-HEAD CELLS


 MAXIMUM STEPSIZE DURING WHICH ANY PARTICLE CANNOT MOVE MORE THAN ONE CELL
 = 0.1187    (WHEN MIN. R.F.=1)  AT K=   3, I=   2, J=  33

 MAXIMUM STEPSIZE WHICH MEETS STABILITY CRITERION OF THE ADVECTION TERM
 (FOR PURE FINITE-DIFFERENCE OPTION, MIXELM=0) 
 = 0.8134E-01(WHEN MIN. R.F.=1)  AT K=   3, I=   2, J=  32


 TOTAL NUMBER OF POINT SOURCES/SINKS PRESENT IN THE FLOW MODEL =   240

 MAXIMUM STEPSIZE WHICH MEETS STABILITY CRITERION OF THE SINK & SOURCE TERM
 = 0.1000E+31(WHEN MIN. R.F.=1)  AT K=   0, I=   0, J=   0

 MAXIMUM STEPSIZE WHICH MEETS STABILITY CRITERION OF THE DISPERSION TERM
 = 0.5603E-02(WHEN MIN. R.F.=1)  AT K=   3, I=   2, J=  32
     1 CALLS TO GCG PACKAGE FOR TRANSPORT TIME STEP  12 IN FLOW TIME STEP 100 STRESS PERIOD   2
     4 TOTAL ITERATIONS
  MAXIMUM CONCENTRATION CHANGES FOR EACH ITERATION:
  MAX. CHANGE LAYER,ROW,COL MAX. CHANGE LAYER,ROW,COL MAX. CHANGE LAYER,ROW,COL MAX. CHANGE LAYER,ROW,COL MAX. CHANGE LAYER,ROW,COL
 ------------------------------------------------------------------------------------------------------------------------------------
   0.1123E-03 ( 14,  3, 50)  0.3546E-05 (  6,  2, 61)  0.4972E-06 (  5,  2, 57)  0.6489E-07 (  7,  2, 61)



 >>>>>>>>>>>>>>>>>>>>>>>>>>>>>>>>>>>>>>>>>>>>>>>>>>>>>>>FOR COMPONENT NO. 01<<<<<<<<<<<<<<<<<<<<<<<<<<<<<<<<<<<<<<<<<<<<<<<<<<<<<<<


                                            -------------------------------------------
                                                      TRANSPORT STEP NO.   12
                                            -------------------------------------------

 TOTAL ELAPSED TIME SINCE BEGINNING OF SIMULATION =   101.0000    D   
 .....................................................................

                     CUMULATIVE MASS BUDGETS AT END OF TRANSPORT STEP   12, TIME STEP  100, STRESS PERIOD    2
                     ------------------------------------------------------------------------------------------

                                                             IN                           OUT
                                                      ----------------             ----------------
                               CONSTANT CONCENTRATION:    14090.19                   -8997.756    
                                        CONSTANT HEAD:    0.000000                    0.000000    
                               MASS STOR (FLOW MODEL):   0.1333579E-01              -0.3455756E-02
                                MASS STORAGE (SOLUTE):    12.54400                   -5104.991    
                            ---------------------------------------------------------------------------
                                              [TOTAL]:    14102.75     KG            -14102.75     KG  

                                                          NET (IN - OUT):  -0.4592791E-03
                                                   DISCREPANCY (PERCENT):  -0.3256664E-05
1
  MASS BUDGET FOR ENTIRE MODEL AT END OF TIME STEP100 IN STRESS PERIOD   2
  ------------------------------------------------------------------------------

     CUMULATIVE MASS      M       RATES FOR THIS TIME STEP      M/T
     ------------------                 ------------------------

           IN:                                      IN:
           ---                                      ---
             STORAGE =           5.7661               STORAGE =       2.1874E-03
       CONSTANT HEAD =      306804.8528         CONSTANT HEAD =        3049.5519
                DCDT =           8.9685                  DCDT =       7.6586E-02

            TOTAL IN =      306819.5874              TOTAL IN =        3049.6307

          OUT:                                     OUT:
          ----                                     ----
             STORAGE =           0.6889               STORAGE =       3.1645E-03
       CONSTANT HEAD =      303341.3516         CONSTANT HEAD =        3042.5243
                DCDT =        3477.5402                  DCDT =           7.1032

           TOTAL OUT =      306819.5807             TOTAL OUT =        3049.6307

            IN - OUT =       6.6512E-03              IN - OUT =       1.5016E-05

 PERCENT DISCREPANCY =           0.00     PERCENT DISCREPANCY =           0.00



0


          TIME SUMMARY AT END OF TRANSPORT STEP   12 IN TIME STEP  100 IN STRESS PERIOD   2
                    SECONDS     MINUTES      HOURS       DAYS        YEARS
                    -----------------------------------------------------------
  TRANS STEP LENGTH  1807.8      30.130     0.50217     2.09238E-02 5.72863E-05
   TIME STEP LENGTH  86400.      1440.0      24.000     1.00000     2.73785E-03
 STRESS PERIOD TIME 8.64000E+06 1.44000E+05  2400.0     100.000     0.27379    
         TOTAL TIME 8.72640E+06 1.45440E+05  2424.0      101.00     0.27652    
1
