                                  SEAWAT Version 4
      U.S. GEOLOGICAL SURVEY MODULAR FINITE-DIFFERENCE GROUND-WATER FLOW MODEL
                           VERSION 4.00.05 10/19/2012


 This model run combines GLOBAL and LIST output into this single file.

 GLOBAL LISTING FILE: newtest.list
                         UNIT    2

 OPENING newtest.dis
 FILE TYPE:DIS   UNIT   11   STATUS:OLD    
 FORMAT:FORMATTED              ACCESS:SEQUENTIAL          

 OPENING newtest.bas
 FILE TYPE:BAS6   UNIT   13   STATUS:OLD    
 FORMAT:FORMATTED              ACCESS:SEQUENTIAL          

 OPENING newtest.lpf
 FILE TYPE:LPF   UNIT   15   STATUS:OLD    
 FORMAT:FORMATTED              ACCESS:SEQUENTIAL          

 OPENING newtest.pcg
 FILE TYPE:PCG   UNIT   27   STATUS:OLD    
 FORMAT:FORMATTED              ACCESS:SEQUENTIAL          

 OPENING newtest.oc
 FILE TYPE:OC   UNIT   14   STATUS:OLD    
 FORMAT:FORMATTED              ACCESS:SEQUENTIAL          

 OPENING newtest.btn
 FILE TYPE:BTN   UNIT   31   STATUS:OLD    
 FORMAT:FORMATTED              ACCESS:SEQUENTIAL          

 OPENING newtest.adv
 FILE TYPE:ADV   UNIT   32   STATUS:OLD    
 FORMAT:FORMATTED              ACCESS:SEQUENTIAL          

 OPENING newtest.dsp
 FILE TYPE:DSP   UNIT   33   STATUS:OLD    
 FORMAT:FORMATTED              ACCESS:SEQUENTIAL          

 OPENING newtest.gcg
 FILE TYPE:GCG   UNIT   35   STATUS:OLD    
 FORMAT:FORMATTED              ACCESS:SEQUENTIAL          

 OPENING newtest.ssm
 FILE TYPE:SSM   UNIT   34   STATUS:OLD    
 FORMAT:FORMATTED              ACCESS:SEQUENTIAL          

 OPENING newtest.chd
 FILE TYPE:CHD   UNIT   24   STATUS:OLD    
 FORMAT:FORMATTED              ACCESS:SEQUENTIAL          

 OPENING newtest.vdf
 FILE TYPE:VDF   UNIT   37   STATUS:OLD    
 FORMAT:FORMATTED              ACCESS:SEQUENTIAL          

 OPENING newtest.cbc
 FILE TYPE:DATA(BINARY)   UNIT   53   STATUS:REPLACE
 FORMAT:BINARY                 ACCESS:SEQUENTIAL          

 OPENING newtest.hds
 FILE TYPE:DATA(BINARY)   UNIT   51   STATUS:REPLACE
 FORMAT:BINARY                 ACCESS:SEQUENTIAL          

 THE FREE FORMAT OPTION HAS BEEN SELECTED

 DISCRETIZATION INPUT DATA READ FROM UNIT   11
 # DIS package for  SEAWAT, generated by Flopy.
   40 LAYERS         3 ROWS        70 COLUMNS
    2 STRESS PERIOD(S) IN SIMULATION
 MODEL TIME UNIT IS DAYS
 MODEL LENGTH UNIT IS METERS
  ----- 
 | M T | ## BTN for MT3DMS, generated by Flopy.                                          
 | 3 D | ##                                                                              
  ----- 
 THE TRANSPORT MODEL CONSISTS OF    40 LAYER(S)    3 ROW(S)   70 COLUMN(S)
 NUMBER OF STRESS PERIOD(S) FOR TRANSPORT SIMULATION =    2
 NUMBER OF ALL COMPONENTS INCLUDED IN SIMULATION =    1
 NUMBER OF MOBILE COMPONENTS INCLUDED IN SIMULATION =    1
 UNIT FOR TIME IS D   ;  UNIT FOR LENGTH IS M   ;  UNIT FOR MASS IS KG  
 OPTIONAL PACKAGES INCLUDED IN CURRENT SIMULATION:
  o ADV   ON UNIT 32
  o DSP   ON UNIT 33
  o SSM   ON UNIT 34
  o GCG   ON UNIT 35


 VDF -- VARIABLE DENSITY FLOW, VERSION 1, 2/13/2004
         INPUT READ FROM UNIT 37

 COUPLING BETWEEN FLOW AND TRANSPORT IS EXPLICIT
 VARIABLE-DENSITY WATER-TABLE CORRECTIONS NOT ADDED
 MT3DMS SPECIES USED IN EQUATION OF STATE FOR FLUID DENSITY:          1
 AN UPSTREAM-WEIGHTED ALGORITHM IS USED TO CALCULATE FLUID DENSITY TERMS THAT CONSERVE MASS
 1000.0     REFERENCE DENSITY
 0.7143     DENSITY SLOPE FOR EQUATION OF STATE
 DENSITY EQUATION OF STATE
 RHO =    1000.000    
  + 0.7143     * ( CONC(   1) -  0.000     )



 FIRSTDT SPECIFIED BY USER IN THE VDF FILE IS:   0.1000000E-02
 THE GROUND-WATER TRANSPORT PROCESS IS INACTIVE

 THE OBSERVATION PROCESS IS INACTIVE
 THE SENSITIVITY PROCESS IS INACTIVE
 THE PARAMETER-ESTIMATION PROCESS IS INACTIVE

 MODE: FORWARD

  Confining bed flag for each layer:
   0   0   0   0   0   0   0   0   0   0   0   0   0   0   0   0   0   0   0   0
   0   0   0   0   0   0   0   0   0   0   0   0   0   0   0   0   0   0   0   0

      75673  ELEMENTS OF GX ARRAY USED OUT OF      75673
       8400  ELEMENTS OF GZ ARRAY USED OUT OF       8400
       8400  ELEMENTS OF IG ARRAY USED OUT OF       8400

                     DELR =  1.000000    

                     DELC =   3.33330    

 TOP ELEVATION OF LAYER 1 =   20.0000    

   MODEL LAYER BOTTOM EL. =   19.5000     FOR LAYER   1

   MODEL LAYER BOTTOM EL. =   19.0000     FOR LAYER   2

   MODEL LAYER BOTTOM EL. =   18.5000     FOR LAYER   3

   MODEL LAYER BOTTOM EL. =   18.0000     FOR LAYER   4

   MODEL LAYER BOTTOM EL. =   17.5000     FOR LAYER   5

   MODEL LAYER BOTTOM EL. =   17.0000     FOR LAYER   6

   MODEL LAYER BOTTOM EL. =   16.5000     FOR LAYER   7

   MODEL LAYER BOTTOM EL. =   16.0000     FOR LAYER   8

   MODEL LAYER BOTTOM EL. =   15.5000     FOR LAYER   9

   MODEL LAYER BOTTOM EL. =   15.0000     FOR LAYER  10

   MODEL LAYER BOTTOM EL. =   14.5000     FOR LAYER  11

   MODEL LAYER BOTTOM EL. =   14.0000     FOR LAYER  12

   MODEL LAYER BOTTOM EL. =   13.5000     FOR LAYER  13

   MODEL LAYER BOTTOM EL. =   13.0000     FOR LAYER  14

   MODEL LAYER BOTTOM EL. =   12.5000     FOR LAYER  15

   MODEL LAYER BOTTOM EL. =   12.0000     FOR LAYER  16

   MODEL LAYER BOTTOM EL. =   11.5000     FOR LAYER  17

   MODEL LAYER BOTTOM EL. =   11.0000     FOR LAYER  18

   MODEL LAYER BOTTOM EL. =   10.5000     FOR LAYER  19

   MODEL LAYER BOTTOM EL. =  10.00000     FOR LAYER  20

   MODEL LAYER BOTTOM EL. =   9.50000     FOR LAYER  21

   MODEL LAYER BOTTOM EL. =   9.00000     FOR LAYER  22

   MODEL LAYER BOTTOM EL. =   8.50000     FOR LAYER  23

   MODEL LAYER BOTTOM EL. =   8.00000     FOR LAYER  24

   MODEL LAYER BOTTOM EL. =   7.50000     FOR LAYER  25

   MODEL LAYER BOTTOM EL. =   7.00000     FOR LAYER  26

   MODEL LAYER BOTTOM EL. =   6.50000     FOR LAYER  27

   MODEL LAYER BOTTOM EL. =   6.00000     FOR LAYER  28

   MODEL LAYER BOTTOM EL. =   5.50000     FOR LAYER  29

   MODEL LAYER BOTTOM EL. =   5.00000     FOR LAYER  30

   MODEL LAYER BOTTOM EL. =   4.50000     FOR LAYER  31

   MODEL LAYER BOTTOM EL. =   4.00000     FOR LAYER  32

   MODEL LAYER BOTTOM EL. =   3.50000     FOR LAYER  33

   MODEL LAYER BOTTOM EL. =   3.00000     FOR LAYER  34

   MODEL LAYER BOTTOM EL. =   2.50000     FOR LAYER  35

   MODEL LAYER BOTTOM EL. =   2.00000     FOR LAYER  36

   MODEL LAYER BOTTOM EL. =   1.50000     FOR LAYER  37

   MODEL LAYER BOTTOM EL. =  1.000000     FOR LAYER  38

   MODEL LAYER BOTTOM EL. =  0.500000     FOR LAYER  39

   MODEL LAYER BOTTOM EL. =   0.00000     FOR LAYER  40


 STRESS PERIOD     LENGTH       TIME STEPS     MULTIPLIER FOR DELT    SS FLAG
 ----------------------------------------------------------------------------
        1        1.0000000        100                    1.000         SS
        2        100.00000        100                    1.000         TR

 COMBINED STEADY-STATE AND TRANSIENT SIMULATION




 LPF1 -- LAYER PROPERTY FLOW PACKAGE, VERSION 1, 1/11/2000
         INPUT READ FROM UNIT   15
 # LPF package for  SEAWAT, generated by Flopy.
 CELL-BY-CELL FLOWS WILL BE SAVED ON UNIT   53
 HEAD AT CELLS THAT CONVERT TO DRY= -1.00000E+30
 No named parameters

   LAYER FLAGS:
 LAYER       LAYTYP        LAYAVG         CHANI        LAYVKA        LAYWET
 ---------------------------------------------------------------------------
    1             0             0     1.000E+00             0             0
    2             0             0     1.000E+00             0             0
    3             0             0     1.000E+00             0             0
    4             0             0     1.000E+00             0             0
    5             0             0     1.000E+00             0             0
    6             0             0     1.000E+00             0             0
    7             0             0     1.000E+00             0             0
    8             0             0     1.000E+00             0             0
    9             0             0     1.000E+00             0             0
   10             0             0     1.000E+00             0             0
   11             0             0     1.000E+00             0             0
   12             0             0     1.000E+00             0             0
   13             0             0     1.000E+00             0             0
   14             0             0     1.000E+00             0             0
   15             0             0     1.000E+00             0             0
   16             0             0     1.000E+00             0             0
   17             0             0     1.000E+00             0             0
   18             0             0     1.000E+00             0             0
   19             0             0     1.000E+00             0             0
   20             0             0     1.000E+00             0             0
   21             0             0     1.000E+00             0             0
   22             0             0     1.000E+00             0             0
   23             0             0     1.000E+00             0             0
   24             0             0     1.000E+00             0             0
   25             0             0     1.000E+00             0             0
   26             0             0     1.000E+00             0             0
   27             0             0     1.000E+00             0             0
   28             0             0     1.000E+00             0             0
   29             0             0     1.000E+00             0             0
   30             0             0     1.000E+00             0             0
   31             0             0     1.000E+00             0             0
   32             0             0     1.000E+00             0             0
   33             0             0     1.000E+00             0             0
   34             0             0     1.000E+00             0             0
   35             0             0     1.000E+00             0             0
   36             0             0     1.000E+00             0             0
   37             0             0     1.000E+00             0             0
   38             0             0     1.000E+00             0             0
   39             0             0     1.000E+00             0             0
   40             0             0     1.000E+00             0             0

   INTERPRETATION OF LAYER FLAGS:
                        INTERBLOCK     HORIZONTAL    DATA IN
         LAYER TYPE   TRANSMISSIVITY   ANISOTROPY   ARRAY VKA   WETTABILITY
 LAYER      (LAYTYP)      (LAYAVG)       (CHANI)      (LAYVKA)      (LAYWET)
 ---------------------------------------------------------------------------
    1      CONFINED      HARMONIC     1.000E+00    VERTICAL K  NON-WETTABLE
    2      CONFINED      HARMONIC     1.000E+00    VERTICAL K  NON-WETTABLE
    3      CONFINED      HARMONIC     1.000E+00    VERTICAL K  NON-WETTABLE
    4      CONFINED      HARMONIC     1.000E+00    VERTICAL K  NON-WETTABLE
    5      CONFINED      HARMONIC     1.000E+00    VERTICAL K  NON-WETTABLE
    6      CONFINED      HARMONIC     1.000E+00    VERTICAL K  NON-WETTABLE
    7      CONFINED      HARMONIC     1.000E+00    VERTICAL K  NON-WETTABLE
    8      CONFINED      HARMONIC     1.000E+00    VERTICAL K  NON-WETTABLE
    9      CONFINED      HARMONIC     1.000E+00    VERTICAL K  NON-WETTABLE
   10      CONFINED      HARMONIC     1.000E+00    VERTICAL K  NON-WETTABLE
   11      CONFINED      HARMONIC     1.000E+00    VERTICAL K  NON-WETTABLE
   12      CONFINED      HARMONIC     1.000E+00    VERTICAL K  NON-WETTABLE
   13      CONFINED      HARMONIC     1.000E+00    VERTICAL K  NON-WETTABLE
   14      CONFINED      HARMONIC     1.000E+00    VERTICAL K  NON-WETTABLE
   15      CONFINED      HARMONIC     1.000E+00    VERTICAL K  NON-WETTABLE
   16      CONFINED      HARMONIC     1.000E+00    VERTICAL K  NON-WETTABLE
   17      CONFINED      HARMONIC     1.000E+00    VERTICAL K  NON-WETTABLE
   18      CONFINED      HARMONIC     1.000E+00    VERTICAL K  NON-WETTABLE
   19      CONFINED      HARMONIC     1.000E+00    VERTICAL K  NON-WETTABLE
   20      CONFINED      HARMONIC     1.000E+00    VERTICAL K  NON-WETTABLE
   21      CONFINED      HARMONIC     1.000E+00    VERTICAL K  NON-WETTABLE
   22      CONFINED      HARMONIC     1.000E+00    VERTICAL K  NON-WETTABLE
   23      CONFINED      HARMONIC     1.000E+00    VERTICAL K  NON-WETTABLE
   24      CONFINED      HARMONIC     1.000E+00    VERTICAL K  NON-WETTABLE
   25      CONFINED      HARMONIC     1.000E+00    VERTICAL K  NON-WETTABLE
   26      CONFINED      HARMONIC     1.000E+00    VERTICAL K  NON-WETTABLE
   27      CONFINED      HARMONIC     1.000E+00    VERTICAL K  NON-WETTABLE
   28      CONFINED      HARMONIC     1.000E+00    VERTICAL K  NON-WETTABLE
   29      CONFINED      HARMONIC     1.000E+00    VERTICAL K  NON-WETTABLE
   30      CONFINED      HARMONIC     1.000E+00    VERTICAL K  NON-WETTABLE
   31      CONFINED      HARMONIC     1.000E+00    VERTICAL K  NON-WETTABLE
   32      CONFINED      HARMONIC     1.000E+00    VERTICAL K  NON-WETTABLE
   33      CONFINED      HARMONIC     1.000E+00    VERTICAL K  NON-WETTABLE
   34      CONFINED      HARMONIC     1.000E+00    VERTICAL K  NON-WETTABLE
   35      CONFINED      HARMONIC     1.000E+00    VERTICAL K  NON-WETTABLE
   36      CONFINED      HARMONIC     1.000E+00    VERTICAL K  NON-WETTABLE
   37      CONFINED      HARMONIC     1.000E+00    VERTICAL K  NON-WETTABLE
   38      CONFINED      HARMONIC     1.000E+00    VERTICAL K  NON-WETTABLE
   39      CONFINED      HARMONIC     1.000E+00    VERTICAL K  NON-WETTABLE
   40      CONFINED      HARMONIC     1.000E+00    VERTICAL K  NON-WETTABLE

      25200 ELEMENTS IN X ARRAY ARE USED BY LPF
        240 ELEMENTS IN IX ARRAY ARE USED BY LPF

 PCG2 -- CONJUGATE GRADIENT SOLUTION PACKAGE, VERSION 2.4, 12/29/98
 # PCG package for  SEAWAT, generated by Flopy.
 MAXIMUM OF     50 CALLS OF SOLUTION ROUTINE
 MAXIMUM OF     30 INTERNAL ITERATIONS PER CALL TO SOLUTION ROUTINE
 MATRIX PRECONDITIONING TYPE :    1
      19800 ELEMENTS IN X ARRAY ARE USED BY PCG
      10500 ELEMENTS IN IX ARRAY ARE USED BY PCG
      33600 ELEMENTS IN Z ARRAY ARE USED BY PCG

      45000  ELEMENTS OF X ARRAY USED OUT OF      45000
      33600  ELEMENTS OF Z ARRAY USED OUT OF      33600
      10740  ELEMENTS OF IX ARRAY USED OUT OF      10740
          0  ELEMENTS OF XHS ARRAY USED OUT OF          1



                                    SOLUTION BY THE CONJUGATE-GRADIENT METHOD
                                   -------------------------------------------
                    MAXIMUM NUMBER OF CALLS TO PCG ROUTINE =       50
                        MAXIMUM ITERATIONS PER CALL TO PCG =       30
                               MATRIX PRECONDITIONING TYPE =        1
        RELAXATION FACTOR (ONLY USED WITH PRECOND. TYPE 1) =    0.10000E+01
 PARAMETER OF POLYNOMIAL PRECOND. = 2 (2) OR IS CALCULATED :        0
                         HEAD CHANGE CRITERION FOR CLOSURE =    0.10000E-07
                     RESIDUAL CHANGE CRITERION FOR CLOSURE =    0.10000E-04
            PCG HEAD AND RESIDUAL CHANGE PRINTOUT INTERVAL =      999
     PRINTING FROM SOLVER IS LIMITED(1) OR SUPPRESSED (>1) =        3
                                         DAMPING PARAMETER =    0.10000E+01

 WETTING CAPABILITY IS NOT ACTIVE IN ANY LAYER



              HYD. COND. ALONG ROWS FOR LAYER   1
 READING ON UNIT   15 WITH FORMAT:           (70E15.6) 

      VERTICAL HYD. COND. =  1.000000E-01 FOR LAYER   1

         SPECIFIC STORAGE =  5.000000E-05 FOR LAYER   1



              HYD. COND. ALONG ROWS FOR LAYER   2
 READING ON UNIT   15 WITH FORMAT:           (70E15.6) 

      VERTICAL HYD. COND. =  1.000000E-01 FOR LAYER   2

         SPECIFIC STORAGE =  5.000000E-05 FOR LAYER   2



              HYD. COND. ALONG ROWS FOR LAYER   3
 READING ON UNIT   15 WITH FORMAT:           (70E15.6) 

      VERTICAL HYD. COND. =  1.000000E-01 FOR LAYER   3

         SPECIFIC STORAGE =  5.000000E-05 FOR LAYER   3



              HYD. COND. ALONG ROWS FOR LAYER   4
 READING ON UNIT   15 WITH FORMAT:           (70E15.6) 

      VERTICAL HYD. COND. =  1.000000E-01 FOR LAYER   4

         SPECIFIC STORAGE =  5.000000E-05 FOR LAYER   4



              HYD. COND. ALONG ROWS FOR LAYER   5
 READING ON UNIT   15 WITH FORMAT:           (70E15.6) 

      VERTICAL HYD. COND. =  1.000000E-01 FOR LAYER   5

         SPECIFIC STORAGE =  5.000000E-05 FOR LAYER   5



              HYD. COND. ALONG ROWS FOR LAYER   6
 READING ON UNIT   15 WITH FORMAT:           (70E15.6) 

      VERTICAL HYD. COND. =  1.000000E-01 FOR LAYER   6

         SPECIFIC STORAGE =  5.000000E-05 FOR LAYER   6



              HYD. COND. ALONG ROWS FOR LAYER   7
 READING ON UNIT   15 WITH FORMAT:           (70E15.6) 

      VERTICAL HYD. COND. =  1.000000E-01 FOR LAYER   7

         SPECIFIC STORAGE =  5.000000E-05 FOR LAYER   7



              HYD. COND. ALONG ROWS FOR LAYER   8
 READING ON UNIT   15 WITH FORMAT:           (70E15.6) 

      VERTICAL HYD. COND. =  1.000000E-01 FOR LAYER   8

         SPECIFIC STORAGE =  5.000000E-05 FOR LAYER   8



              HYD. COND. ALONG ROWS FOR LAYER   9
 READING ON UNIT   15 WITH FORMAT:           (70E15.6) 

      VERTICAL HYD. COND. =  1.000000E-01 FOR LAYER   9

         SPECIFIC STORAGE =  5.000000E-05 FOR LAYER   9



              HYD. COND. ALONG ROWS FOR LAYER  10
 READING ON UNIT   15 WITH FORMAT:           (70E15.6) 

      VERTICAL HYD. COND. =  1.000000E-01 FOR LAYER  10

         SPECIFIC STORAGE =  5.000000E-05 FOR LAYER  10



              HYD. COND. ALONG ROWS FOR LAYER  11
 READING ON UNIT   15 WITH FORMAT:           (70E15.6) 

      VERTICAL HYD. COND. =  1.000000E-01 FOR LAYER  11

         SPECIFIC STORAGE =  5.000000E-05 FOR LAYER  11



              HYD. COND. ALONG ROWS FOR LAYER  12
 READING ON UNIT   15 WITH FORMAT:           (70E15.6) 

      VERTICAL HYD. COND. =  1.000000E-01 FOR LAYER  12

         SPECIFIC STORAGE =  5.000000E-05 FOR LAYER  12



              HYD. COND. ALONG ROWS FOR LAYER  13
 READING ON UNIT   15 WITH FORMAT:           (70E15.6) 

      VERTICAL HYD. COND. =  1.000000E-01 FOR LAYER  13

         SPECIFIC STORAGE =  5.000000E-05 FOR LAYER  13



              HYD. COND. ALONG ROWS FOR LAYER  14
 READING ON UNIT   15 WITH FORMAT:           (70E15.6) 

      VERTICAL HYD. COND. =  1.000000E-01 FOR LAYER  14

         SPECIFIC STORAGE =  5.000000E-05 FOR LAYER  14



              HYD. COND. ALONG ROWS FOR LAYER  15
 READING ON UNIT   15 WITH FORMAT:           (70E15.6) 

      VERTICAL HYD. COND. =  1.000000E-01 FOR LAYER  15

         SPECIFIC STORAGE =  5.000000E-05 FOR LAYER  15



              HYD. COND. ALONG ROWS FOR LAYER  16
 READING ON UNIT   15 WITH FORMAT:           (70E15.6) 

      VERTICAL HYD. COND. =  1.000000E-01 FOR LAYER  16

         SPECIFIC STORAGE =  5.000000E-05 FOR LAYER  16



              HYD. COND. ALONG ROWS FOR LAYER  17
 READING ON UNIT   15 WITH FORMAT:           (70E15.6) 

      VERTICAL HYD. COND. =  1.000000E-01 FOR LAYER  17

         SPECIFIC STORAGE =  5.000000E-05 FOR LAYER  17



              HYD. COND. ALONG ROWS FOR LAYER  18
 READING ON UNIT   15 WITH FORMAT:           (70E15.6) 

      VERTICAL HYD. COND. =  1.000000E-01 FOR LAYER  18

         SPECIFIC STORAGE =  5.000000E-05 FOR LAYER  18



              HYD. COND. ALONG ROWS FOR LAYER  19
 READING ON UNIT   15 WITH FORMAT:           (70E15.6) 

      VERTICAL HYD. COND. =  1.000000E-01 FOR LAYER  19

         SPECIFIC STORAGE =  5.000000E-05 FOR LAYER  19



              HYD. COND. ALONG ROWS FOR LAYER  20
 READING ON UNIT   15 WITH FORMAT:           (70E15.6) 

      VERTICAL HYD. COND. =  1.000000E-01 FOR LAYER  20

         SPECIFIC STORAGE =  5.000000E-05 FOR LAYER  20



              HYD. COND. ALONG ROWS FOR LAYER  21
 READING ON UNIT   15 WITH FORMAT:           (70E15.6) 

      VERTICAL HYD. COND. =  1.000000E-01 FOR LAYER  21

         SPECIFIC STORAGE =  5.000000E-05 FOR LAYER  21



              HYD. COND. ALONG ROWS FOR LAYER  22
 READING ON UNIT   15 WITH FORMAT:           (70E15.6) 

      VERTICAL HYD. COND. =  1.000000E-01 FOR LAYER  22

         SPECIFIC STORAGE =  5.000000E-05 FOR LAYER  22



              HYD. COND. ALONG ROWS FOR LAYER  23
 READING ON UNIT   15 WITH FORMAT:           (70E15.6) 

      VERTICAL HYD. COND. =  1.000000E-01 FOR LAYER  23

         SPECIFIC STORAGE =  5.000000E-05 FOR LAYER  23



              HYD. COND. ALONG ROWS FOR LAYER  24
 READING ON UNIT   15 WITH FORMAT:           (70E15.6) 

      VERTICAL HYD. COND. =  1.000000E-01 FOR LAYER  24

         SPECIFIC STORAGE =  5.000000E-05 FOR LAYER  24



              HYD. COND. ALONG ROWS FOR LAYER  25
 READING ON UNIT   15 WITH FORMAT:           (70E15.6) 

      VERTICAL HYD. COND. =  1.000000E-01 FOR LAYER  25

         SPECIFIC STORAGE =  5.000000E-05 FOR LAYER  25



              HYD. COND. ALONG ROWS FOR LAYER  26
 READING ON UNIT   15 WITH FORMAT:           (70E15.6) 

      VERTICAL HYD. COND. =  1.000000E-01 FOR LAYER  26

         SPECIFIC STORAGE =  5.000000E-05 FOR LAYER  26



              HYD. COND. ALONG ROWS FOR LAYER  27
 READING ON UNIT   15 WITH FORMAT:           (70E15.6) 

      VERTICAL HYD. COND. =  1.000000E-01 FOR LAYER  27

         SPECIFIC STORAGE =  5.000000E-05 FOR LAYER  27



              HYD. COND. ALONG ROWS FOR LAYER  28
 READING ON UNIT   15 WITH FORMAT:           (70E15.6) 

      VERTICAL HYD. COND. =  1.000000E-01 FOR LAYER  28

         SPECIFIC STORAGE =  5.000000E-05 FOR LAYER  28



              HYD. COND. ALONG ROWS FOR LAYER  29
 READING ON UNIT   15 WITH FORMAT:           (70E15.6) 

      VERTICAL HYD. COND. =  1.000000E-01 FOR LAYER  29

         SPECIFIC STORAGE =  5.000000E-05 FOR LAYER  29



              HYD. COND. ALONG ROWS FOR LAYER  30
 READING ON UNIT   15 WITH FORMAT:           (70E15.6) 

      VERTICAL HYD. COND. =  1.000000E-01 FOR LAYER  30

         SPECIFIC STORAGE =  5.000000E-05 FOR LAYER  30



              HYD. COND. ALONG ROWS FOR LAYER  31
 READING ON UNIT   15 WITH FORMAT:           (70E15.6) 

      VERTICAL HYD. COND. =  1.000000E-01 FOR LAYER  31

         SPECIFIC STORAGE =  5.000000E-05 FOR LAYER  31



              HYD. COND. ALONG ROWS FOR LAYER  32
 READING ON UNIT   15 WITH FORMAT:           (70E15.6) 

      VERTICAL HYD. COND. =  1.000000E-01 FOR LAYER  32

         SPECIFIC STORAGE =  5.000000E-05 FOR LAYER  32



              HYD. COND. ALONG ROWS FOR LAYER  33
 READING ON UNIT   15 WITH FORMAT:           (70E15.6) 

      VERTICAL HYD. COND. =  1.000000E-01 FOR LAYER  33

         SPECIFIC STORAGE =  5.000000E-05 FOR LAYER  33



              HYD. COND. ALONG ROWS FOR LAYER  34
 READING ON UNIT   15 WITH FORMAT:           (70E15.6) 

      VERTICAL HYD. COND. =  1.000000E-01 FOR LAYER  34

         SPECIFIC STORAGE =  5.000000E-05 FOR LAYER  34



              HYD. COND. ALONG ROWS FOR LAYER  35
 READING ON UNIT   15 WITH FORMAT:           (70E15.6) 

      VERTICAL HYD. COND. =  1.000000E-01 FOR LAYER  35

         SPECIFIC STORAGE =  5.000000E-05 FOR LAYER  35



              HYD. COND. ALONG ROWS FOR LAYER  36
 READING ON UNIT   15 WITH FORMAT:           (70E15.6) 

      VERTICAL HYD. COND. =  1.000000E-01 FOR LAYER  36

         SPECIFIC STORAGE =  5.000000E-05 FOR LAYER  36



              HYD. COND. ALONG ROWS FOR LAYER  37
 READING ON UNIT   15 WITH FORMAT:           (70E15.6) 

      VERTICAL HYD. COND. =  1.000000E-01 FOR LAYER  37

         SPECIFIC STORAGE =  5.000000E-05 FOR LAYER  37



              HYD. COND. ALONG ROWS FOR LAYER  38
 READING ON UNIT   15 WITH FORMAT:           (70E15.6) 

      VERTICAL HYD. COND. =  1.000000E-01 FOR LAYER  38

         SPECIFIC STORAGE =  5.000000E-05 FOR LAYER  38



              HYD. COND. ALONG ROWS FOR LAYER  39
 READING ON UNIT   15 WITH FORMAT:           (70E15.6) 

      VERTICAL HYD. COND. =  1.000000E-01 FOR LAYER  39

         SPECIFIC STORAGE =  5.000000E-05 FOR LAYER  39



              HYD. COND. ALONG ROWS FOR LAYER  40
 READING ON UNIT   15 WITH FORMAT:           (70E15.6) 

      VERTICAL HYD. COND. =  1.000000E-01 FOR LAYER  40

         SPECIFIC STORAGE =  5.000000E-05 FOR LAYER  40
 BTN5 -- BASIC TRANSPORT PACKAGE, VERSION 5, OCTOBER 2006, INPUT READ FROM UNIT 31
     126356 ELEMENTS OF THE  X ARRAY USED BY THE BTN PACKAGE
       8440 ELEMENTS OF THE IX ARRAY USED BY THE BTN PACKAGE

 FLOW MODEL IS TRANSIENT

 ADV5 -- ADVECTION PACKAGE, VERSION 5, FEBRUARY 2005, INPUT READ FROM UNIT 32
 ADVECTION IS SOLVED WITH THE UPSTREAM FINITE DIFFERENCE SCHEME
 COURANT NUMBER ALLOWED IN SOLVING THE ADVECTION TERM = 0.750    
          0 ELEMENTS OF THE  X ARRAY USED BY THE ADV PACKAGE
          0 ELEMENTS OF THE IX ARRAY USED BY THE ADV PACKAGE

 DSP5 -- DISPERSION PACKAGE, VERSION 5, OCTOBER 2006, INPUT READ FROM UNIT 33
      92480 ELEMENTS OF THE  X ARRAY USED BY THE DSP PACKAGE
          0 ELEMENTS OF THE IX ARRAY USED BY THE DSP PACKAGE

 SSM5 -- SINK & SOURCE MIXING PACKAGE, VERSION 5, OCTOBER 2006, INPUT READ FROM UNIT 34
 HEADER LINE OF THE SSM PACKAGE INPUT FILE:
  F F F F F F F F F F F F F F F F                                                                                                                                                                        
 MAJOR STRESS COMPONENTS PRESENT IN THE FLOW MODEL:
 MAXIMUM NUMBER OF POINT SINKS/SOURCES =     240
       3120 ELEMENTS OF THE  X ARRAY USED BY THE SSM PACKAGE
          0 ELEMENTS OF THE IX ARRAY BY THE SSM PACKAGE

 GCG5 -- GENERALIZED CONJUGATE GRADIENT SOLVER PACKAGE, VERSION 5, FEBRUARY 2005 INPUT READ FROM UNIT 35
 MAXIMUM OF    1 OUTER ITERATIONS
        AND  500 INNER ITERATIONS ALLOWED FOR CLOSURE
 THE PRECONDITIONING TYPE SELECTED IS JACOBI.
 DISPERSION CROSS TERMS LUMPED INTO RIGHT-HAND-SIDE
     126500 ELEMENTS OF THE  X ARRAY USED BY THE GCG PACKAGE
       1500 ELEMENTS OF THE IX ARRAY USED BY THE GCG PACKAGE

 
 # BAS6 package for  SEAWAT, generated by Flopy.                                 
 THE FREE FORMAT OPTION HAS BEEN SELECTED
   40 LAYERS         3 ROWS        70 COLUMNS
    2 STRESS PERIOD(S) IN SIMULATION

 BAS6 -- BASIC PACKAGE, VERSION 6, 1/11/2000 INPUT READ FROM UNIT   13
        200 ELEMENTS IN IR ARRAY ARE USED BY BAS

 CHD6 -- TIME-VARIANT SPECIFIED-HEAD PACKAGE, VERSION 6, 1/11/2000
 INPUT READ FROM UNIT   24
 # CHD package for  SEAWAT, generated by Flopy.
 No named parameters
 MAXIMUM OF    120 TIME-VARIANT SPECIFIED-HEAD CELLS AT ONE TIME
        600 ELEMENTS IN RX ARRAY ARE USED BY CHD

        600  ELEMENTS OF RX ARRAY USED OUT OF        600
          0  ELEMENTS OF RZ ARRAY USED OUT OF          1
        200  ELEMENTS OF IR ARRAY USED OUT OF        200
1
 # BAS6 package for  SEAWAT, generated by Flopy.                                 
                                                                                 



                     BOUNDARY ARRAY FOR LAYER   1
 READING ON UNIT   13 WITH FORMAT:             (70I10) 



                     BOUNDARY ARRAY FOR LAYER   2
 READING ON UNIT   13 WITH FORMAT:             (70I10) 



                     BOUNDARY ARRAY FOR LAYER   3
 READING ON UNIT   13 WITH FORMAT:             (70I10) 



                     BOUNDARY ARRAY FOR LAYER   4
 READING ON UNIT   13 WITH FORMAT:             (70I10) 



                     BOUNDARY ARRAY FOR LAYER   5
 READING ON UNIT   13 WITH FORMAT:             (70I10) 



                     BOUNDARY ARRAY FOR LAYER   6
 READING ON UNIT   13 WITH FORMAT:             (70I10) 



                     BOUNDARY ARRAY FOR LAYER   7
 READING ON UNIT   13 WITH FORMAT:             (70I10) 



                     BOUNDARY ARRAY FOR LAYER   8
 READING ON UNIT   13 WITH FORMAT:             (70I10) 



                     BOUNDARY ARRAY FOR LAYER   9
 READING ON UNIT   13 WITH FORMAT:             (70I10) 



                     BOUNDARY ARRAY FOR LAYER  10
 READING ON UNIT   13 WITH FORMAT:             (70I10) 



                     BOUNDARY ARRAY FOR LAYER  11
 READING ON UNIT   13 WITH FORMAT:             (70I10) 



                     BOUNDARY ARRAY FOR LAYER  12
 READING ON UNIT   13 WITH FORMAT:             (70I10) 



                     BOUNDARY ARRAY FOR LAYER  13
 READING ON UNIT   13 WITH FORMAT:             (70I10) 



                     BOUNDARY ARRAY FOR LAYER  14
 READING ON UNIT   13 WITH FORMAT:             (70I10) 



                     BOUNDARY ARRAY FOR LAYER  15
 READING ON UNIT   13 WITH FORMAT:             (70I10) 



                     BOUNDARY ARRAY FOR LAYER  16
 READING ON UNIT   13 WITH FORMAT:             (70I10) 



                     BOUNDARY ARRAY FOR LAYER  17
 READING ON UNIT   13 WITH FORMAT:             (70I10) 



                     BOUNDARY ARRAY FOR LAYER  18
 READING ON UNIT   13 WITH FORMAT:             (70I10) 



                     BOUNDARY ARRAY FOR LAYER  19
 READING ON UNIT   13 WITH FORMAT:             (70I10) 



                     BOUNDARY ARRAY FOR LAYER  20
 READING ON UNIT   13 WITH FORMAT:             (70I10) 



                     BOUNDARY ARRAY FOR LAYER  21
 READING ON UNIT   13 WITH FORMAT:             (70I10) 



                     BOUNDARY ARRAY FOR LAYER  22
 READING ON UNIT   13 WITH FORMAT:             (70I10) 



                     BOUNDARY ARRAY FOR LAYER  23
 READING ON UNIT   13 WITH FORMAT:             (70I10) 



                     BOUNDARY ARRAY FOR LAYER  24
 READING ON UNIT   13 WITH FORMAT:             (70I10) 



                     BOUNDARY ARRAY FOR LAYER  25
 READING ON UNIT   13 WITH FORMAT:             (70I10) 



                     BOUNDARY ARRAY FOR LAYER  26
 READING ON UNIT   13 WITH FORMAT:             (70I10) 



                     BOUNDARY ARRAY FOR LAYER  27
 READING ON UNIT   13 WITH FORMAT:             (70I10) 



                     BOUNDARY ARRAY FOR LAYER  28
 READING ON UNIT   13 WITH FORMAT:             (70I10) 



                     BOUNDARY ARRAY FOR LAYER  29
 READING ON UNIT   13 WITH FORMAT:             (70I10) 



                     BOUNDARY ARRAY FOR LAYER  30
 READING ON UNIT   13 WITH FORMAT:             (70I10) 



                     BOUNDARY ARRAY FOR LAYER  31
 READING ON UNIT   13 WITH FORMAT:             (70I10) 



                     BOUNDARY ARRAY FOR LAYER  32
 READING ON UNIT   13 WITH FORMAT:             (70I10) 



                     BOUNDARY ARRAY FOR LAYER  33
 READING ON UNIT   13 WITH FORMAT:             (70I10) 



                     BOUNDARY ARRAY FOR LAYER  34
 READING ON UNIT   13 WITH FORMAT:             (70I10) 



                     BOUNDARY ARRAY FOR LAYER  35
 READING ON UNIT   13 WITH FORMAT:             (70I10) 



                     BOUNDARY ARRAY FOR LAYER  36
 READING ON UNIT   13 WITH FORMAT:             (70I10) 



                     BOUNDARY ARRAY FOR LAYER  37
 READING ON UNIT   13 WITH FORMAT:             (70I10) 



                     BOUNDARY ARRAY FOR LAYER  38
 READING ON UNIT   13 WITH FORMAT:             (70I10) 



                     BOUNDARY ARRAY FOR LAYER  39
 READING ON UNIT   13 WITH FORMAT:             (70I10) 



                     BOUNDARY ARRAY FOR LAYER  40
 READING ON UNIT   13 WITH FORMAT:             (70I10) 

 AQUIFER HEAD WILL BE SET TO -999.99     AT ALL NO-FLOW NODES (IBOUND=0).



                       INITIAL HEAD FOR LAYER   1
 READING ON UNIT   13 WITH FORMAT:           (70E15.6) 



                       INITIAL HEAD FOR LAYER   2
 READING ON UNIT   13 WITH FORMAT:           (70E15.6) 



                       INITIAL HEAD FOR LAYER   3
 READING ON UNIT   13 WITH FORMAT:           (70E15.6) 



                       INITIAL HEAD FOR LAYER   4
 READING ON UNIT   13 WITH FORMAT:           (70E15.6) 



                       INITIAL HEAD FOR LAYER   5
 READING ON UNIT   13 WITH FORMAT:           (70E15.6) 



                       INITIAL HEAD FOR LAYER   6
 READING ON UNIT   13 WITH FORMAT:           (70E15.6) 



                       INITIAL HEAD FOR LAYER   7
 READING ON UNIT   13 WITH FORMAT:           (70E15.6) 



                       INITIAL HEAD FOR LAYER   8
 READING ON UNIT   13 WITH FORMAT:           (70E15.6) 



                       INITIAL HEAD FOR LAYER   9
 READING ON UNIT   13 WITH FORMAT:           (70E15.6) 



                       INITIAL HEAD FOR LAYER  10
 READING ON UNIT   13 WITH FORMAT:           (70E15.6) 



                       INITIAL HEAD FOR LAYER  11
 READING ON UNIT   13 WITH FORMAT:           (70E15.6) 



                       INITIAL HEAD FOR LAYER  12
 READING ON UNIT   13 WITH FORMAT:           (70E15.6) 



                       INITIAL HEAD FOR LAYER  13
 READING ON UNIT   13 WITH FORMAT:           (70E15.6) 



                       INITIAL HEAD FOR LAYER  14
 READING ON UNIT   13 WITH FORMAT:           (70E15.6) 



                       INITIAL HEAD FOR LAYER  15
 READING ON UNIT   13 WITH FORMAT:           (70E15.6) 



                       INITIAL HEAD FOR LAYER  16
 READING ON UNIT   13 WITH FORMAT:           (70E15.6) 



                       INITIAL HEAD FOR LAYER  17
 READING ON UNIT   13 WITH FORMAT:           (70E15.6) 



                       INITIAL HEAD FOR LAYER  18
 READING ON UNIT   13 WITH FORMAT:           (70E15.6) 



                       INITIAL HEAD FOR LAYER  19
 READING ON UNIT   13 WITH FORMAT:           (70E15.6) 



                       INITIAL HEAD FOR LAYER  20
 READING ON UNIT   13 WITH FORMAT:           (70E15.6) 



                       INITIAL HEAD FOR LAYER  21
 READING ON UNIT   13 WITH FORMAT:           (70E15.6) 



                       INITIAL HEAD FOR LAYER  22
 READING ON UNIT   13 WITH FORMAT:           (70E15.6) 



                       INITIAL HEAD FOR LAYER  23
 READING ON UNIT   13 WITH FORMAT:           (70E15.6) 



                       INITIAL HEAD FOR LAYER  24
 READING ON UNIT   13 WITH FORMAT:           (70E15.6) 



                       INITIAL HEAD FOR LAYER  25
 READING ON UNIT   13 WITH FORMAT:           (70E15.6) 



                       INITIAL HEAD FOR LAYER  26
 READING ON UNIT   13 WITH FORMAT:           (70E15.6) 



                       INITIAL HEAD FOR LAYER  27
 READING ON UNIT   13 WITH FORMAT:           (70E15.6) 



                       INITIAL HEAD FOR LAYER  28
 READING ON UNIT   13 WITH FORMAT:           (70E15.6) 



                       INITIAL HEAD FOR LAYER  29
 READING ON UNIT   13 WITH FORMAT:           (70E15.6) 



                       INITIAL HEAD FOR LAYER  30
 READING ON UNIT   13 WITH FORMAT:           (70E15.6) 



                       INITIAL HEAD FOR LAYER  31
 READING ON UNIT   13 WITH FORMAT:           (70E15.6) 



                       INITIAL HEAD FOR LAYER  32
 READING ON UNIT   13 WITH FORMAT:           (70E15.6) 



                       INITIAL HEAD FOR LAYER  33
 READING ON UNIT   13 WITH FORMAT:           (70E15.6) 



                       INITIAL HEAD FOR LAYER  34
 READING ON UNIT   13 WITH FORMAT:           (70E15.6) 



                       INITIAL HEAD FOR LAYER  35
 READING ON UNIT   13 WITH FORMAT:           (70E15.6) 



                       INITIAL HEAD FOR LAYER  36
 READING ON UNIT   13 WITH FORMAT:           (70E15.6) 



                       INITIAL HEAD FOR LAYER  37
 READING ON UNIT   13 WITH FORMAT:           (70E15.6) 



                       INITIAL HEAD FOR LAYER  38
 READING ON UNIT   13 WITH FORMAT:           (70E15.6) 



                       INITIAL HEAD FOR LAYER  39
 READING ON UNIT   13 WITH FORMAT:           (70E15.6) 



                       INITIAL HEAD FOR LAYER  40
 READING ON UNIT   13 WITH FORMAT:           (70E15.6) 
 # OC package for  SEAWAT, generated by Flopy.

 OUTPUT CONTROL IS SPECIFIED ONLY AT TIME STEPS FOR WHICH OUTPUT IS DESIRED
 COMPACT CELL-BY-CELL BUDGET FILES WILL BE WRITTEN
 AUXILIARY DATA WILL BE SAVED IN CELL-BY-CELL BUDGET FILES
 HEAD PRINT FORMAT CODE IS   0    DRAWDOWN PRINT FORMAT CODE IS   0
 HEADS WILL BE SAVED ON UNIT   51    DRAWDOWNS WILL BE SAVED ON UNIT    0


     0 TIME-VARIANT SPECIFIED-HEAD PARAMETERS
 LAYER NUMBER  AQUIFER TYPE
 ------------  ------------
       1            0
       2            0
       3            0
       4            0
       5            0
       6            0
       7            0
       8            0
       9            0
      10            0
      11            0
      12            0
      13            0
      14            0
      15            0
      16            0
      17            0
      18            0
      19            0
      20            0
      21            0
      22            0
      23            0
      24            0
      25            0
      26            0
      27            0
      28            0
      29            0
      30            0
      31            0
      32            0
      33            0
      34            0
      35            0
      36            0
      37            0
      38            0
      39            0
      40            0
                                       WIDTH ALONG ROWS (DELR)  =  1.0000000    
                                       WIDTH ALONG COLS (DELC)  =   3.333300    
                                       TOP ELEV. OF 1ST LAYER   =   20.00000    
                                       CELL THICKNESS (DZ)      =  0.5000000     FOR LAYER  1
                                       CELL THICKNESS (DZ)      =  0.5000000     FOR LAYER  2
                                       CELL THICKNESS (DZ)      =  0.5000000     FOR LAYER  3
                                       CELL THICKNESS (DZ)      =  0.5000000     FOR LAYER  4
                                       CELL THICKNESS (DZ)      =  0.5000000     FOR LAYER  5
                                       CELL THICKNESS (DZ)      =  0.5000000     FOR LAYER  6
                                       CELL THICKNESS (DZ)      =  0.5000000     FOR LAYER  7
                                       CELL THICKNESS (DZ)      =  0.5000000     FOR LAYER  8
                                       CELL THICKNESS (DZ)      =  0.5000000     FOR LAYER  9
                                       CELL THICKNESS (DZ)      =  0.5000000     FOR LAYER 10
                                       CELL THICKNESS (DZ)      =  0.5000000     FOR LAYER 11
                                       CELL THICKNESS (DZ)      =  0.5000000     FOR LAYER 12
                                       CELL THICKNESS (DZ)      =  0.5000000     FOR LAYER 13
                                       CELL THICKNESS (DZ)      =  0.5000000     FOR LAYER 14
                                       CELL THICKNESS (DZ)      =  0.5000000     FOR LAYER 15
                                       CELL THICKNESS (DZ)      =  0.5000000     FOR LAYER 16
                                       CELL THICKNESS (DZ)      =  0.5000000     FOR LAYER 17
                                       CELL THICKNESS (DZ)      =  0.5000000     FOR LAYER 18
                                       CELL THICKNESS (DZ)      =  0.5000000     FOR LAYER 19
                                       CELL THICKNESS (DZ)      =  0.5000000     FOR LAYER 20
                                       CELL THICKNESS (DZ)      =  0.5000000     FOR LAYER 21
                                       CELL THICKNESS (DZ)      =  0.5000000     FOR LAYER 22
                                       CELL THICKNESS (DZ)      =  0.5000000     FOR LAYER 23
                                       CELL THICKNESS (DZ)      =  0.5000000     FOR LAYER 24
                                       CELL THICKNESS (DZ)      =  0.5000000     FOR LAYER 25
                                       CELL THICKNESS (DZ)      =  0.5000000     FOR LAYER 26
                                       CELL THICKNESS (DZ)      =  0.5000000     FOR LAYER 27
                                       CELL THICKNESS (DZ)      =  0.5000000     FOR LAYER 28
                                       CELL THICKNESS (DZ)      =  0.5000000     FOR LAYER 29
                                       CELL THICKNESS (DZ)      =  0.5000000     FOR LAYER 30
                                       CELL THICKNESS (DZ)      =  0.5000000     FOR LAYER 31
                                       CELL THICKNESS (DZ)      =  0.5000000     FOR LAYER 32
                                       CELL THICKNESS (DZ)      =  0.5000000     FOR LAYER 33
                                       CELL THICKNESS (DZ)      =  0.5000000     FOR LAYER 34
                                       CELL THICKNESS (DZ)      =  0.5000000     FOR LAYER 35
                                       CELL THICKNESS (DZ)      =  0.5000000     FOR LAYER 36
                                       CELL THICKNESS (DZ)      =  0.5000000     FOR LAYER 37
                                       CELL THICKNESS (DZ)      =  0.5000000     FOR LAYER 38
                                       CELL THICKNESS (DZ)      =  0.5000000     FOR LAYER 39
                                       CELL THICKNESS (DZ)      =  0.5000000     FOR LAYER 40
                                       POROSITY                 =  0.2000000     FOR LAYER  1
                                       POROSITY                 =  0.2000000     FOR LAYER  2
                                       POROSITY                 =  0.2000000     FOR LAYER  3
                                       POROSITY                 =  0.2000000     FOR LAYER  4
                                       POROSITY                 =  0.2000000     FOR LAYER  5
                                       POROSITY                 =  0.2000000     FOR LAYER  6
                                       POROSITY                 =  0.2000000     FOR LAYER  7
                                       POROSITY                 =  0.2000000     FOR LAYER  8
                                       POROSITY                 =  0.2000000     FOR LAYER  9
                                       POROSITY                 =  0.2000000     FOR LAYER 10
                                       POROSITY                 =  0.2000000     FOR LAYER 11
                                       POROSITY                 =  0.2000000     FOR LAYER 12
                                       POROSITY                 =  0.2000000     FOR LAYER 13
                                       POROSITY                 =  0.2000000     FOR LAYER 14
                                       POROSITY                 =  0.2000000     FOR LAYER 15
                                       POROSITY                 =  0.2000000     FOR LAYER 16
                                       POROSITY                 =  0.2000000     FOR LAYER 17
                                       POROSITY                 =  0.2000000     FOR LAYER 18
                                       POROSITY                 =  0.2000000     FOR LAYER 19
                                       POROSITY                 =  0.2000000     FOR LAYER 20
                                       POROSITY                 =  0.2000000     FOR LAYER 21
                                       POROSITY                 =  0.2000000     FOR LAYER 22
                                       POROSITY                 =  0.2000000     FOR LAYER 23
                                       POROSITY                 =  0.2000000     FOR LAYER 24
                                       POROSITY                 =  0.2000000     FOR LAYER 25
                                       POROSITY                 =  0.2000000     FOR LAYER 26
                                       POROSITY                 =  0.2000000     FOR LAYER 27
                                       POROSITY                 =  0.2000000     FOR LAYER 28
                                       POROSITY                 =  0.2000000     FOR LAYER 29
                                       POROSITY                 =  0.2000000     FOR LAYER 30
                                       POROSITY                 =  0.2000000     FOR LAYER 31
                                       POROSITY                 =  0.2000000     FOR LAYER 32
                                       POROSITY                 =  0.2000000     FOR LAYER 33
                                       POROSITY                 =  0.2000000     FOR LAYER 34
                                       POROSITY                 =  0.2000000     FOR LAYER 35
                                       POROSITY                 =  0.2000000     FOR LAYER 36
                                       POROSITY                 =  0.2000000     FOR LAYER 37
                                       POROSITY                 =  0.2000000     FOR LAYER 38
                                       POROSITY                 =  0.2000000     FOR LAYER 39
                                       POROSITY                 =  0.2000000     FOR LAYER 40

                     CONCN. BOUNDARY ARRAY    FOR LAYER  1 READ ON UNIT 31 USING FORMAT: "            (70I10) "
                     ------------------------------------------------------------------------------------------

                     CONCN. BOUNDARY ARRAY    FOR LAYER  2 READ ON UNIT 31 USING FORMAT: "            (70I10) "
                     ------------------------------------------------------------------------------------------

                     CONCN. BOUNDARY ARRAY    FOR LAYER  3 READ ON UNIT 31 USING FORMAT: "            (70I10) "
                     ------------------------------------------------------------------------------------------

                     CONCN. BOUNDARY ARRAY    FOR LAYER  4 READ ON UNIT 31 USING FORMAT: "            (70I10) "
                     ------------------------------------------------------------------------------------------

                     CONCN. BOUNDARY ARRAY    FOR LAYER  5 READ ON UNIT 31 USING FORMAT: "            (70I10) "
                     ------------------------------------------------------------------------------------------

                     CONCN. BOUNDARY ARRAY    FOR LAYER  6 READ ON UNIT 31 USING FORMAT: "            (70I10) "
                     ------------------------------------------------------------------------------------------

                     CONCN. BOUNDARY ARRAY    FOR LAYER  7 READ ON UNIT 31 USING FORMAT: "            (70I10) "
                     ------------------------------------------------------------------------------------------

                     CONCN. BOUNDARY ARRAY    FOR LAYER  8 READ ON UNIT 31 USING FORMAT: "            (70I10) "
                     ------------------------------------------------------------------------------------------

                     CONCN. BOUNDARY ARRAY    FOR LAYER  9 READ ON UNIT 31 USING FORMAT: "            (70I10) "
                     ------------------------------------------------------------------------------------------

                     CONCN. BOUNDARY ARRAY    FOR LAYER 10 READ ON UNIT 31 USING FORMAT: "            (70I10) "
                     ------------------------------------------------------------------------------------------

                     CONCN. BOUNDARY ARRAY    FOR LAYER 11 READ ON UNIT 31 USING FORMAT: "            (70I10) "
                     ------------------------------------------------------------------------------------------

                     CONCN. BOUNDARY ARRAY    FOR LAYER 12 READ ON UNIT 31 USING FORMAT: "            (70I10) "
                     ------------------------------------------------------------------------------------------

                     CONCN. BOUNDARY ARRAY    FOR LAYER 13 READ ON UNIT 31 USING FORMAT: "            (70I10) "
                     ------------------------------------------------------------------------------------------

                     CONCN. BOUNDARY ARRAY    FOR LAYER 14 READ ON UNIT 31 USING FORMAT: "            (70I10) "
                     ------------------------------------------------------------------------------------------

                     CONCN. BOUNDARY ARRAY    FOR LAYER 15 READ ON UNIT 31 USING FORMAT: "            (70I10) "
                     ------------------------------------------------------------------------------------------

                     CONCN. BOUNDARY ARRAY    FOR LAYER 16 READ ON UNIT 31 USING FORMAT: "            (70I10) "
                     ------------------------------------------------------------------------------------------

                     CONCN. BOUNDARY ARRAY    FOR LAYER 17 READ ON UNIT 31 USING FORMAT: "            (70I10) "
                     ------------------------------------------------------------------------------------------

                     CONCN. BOUNDARY ARRAY    FOR LAYER 18 READ ON UNIT 31 USING FORMAT: "            (70I10) "
                     ------------------------------------------------------------------------------------------

                     CONCN. BOUNDARY ARRAY    FOR LAYER 19 READ ON UNIT 31 USING FORMAT: "            (70I10) "
                     ------------------------------------------------------------------------------------------

                     CONCN. BOUNDARY ARRAY    FOR LAYER 20 READ ON UNIT 31 USING FORMAT: "            (70I10) "
                     ------------------------------------------------------------------------------------------

                     CONCN. BOUNDARY ARRAY    FOR LAYER 21 READ ON UNIT 31 USING FORMAT: "            (70I10) "
                     ------------------------------------------------------------------------------------------

                     CONCN. BOUNDARY ARRAY    FOR LAYER 22 READ ON UNIT 31 USING FORMAT: "            (70I10) "
                     ------------------------------------------------------------------------------------------

                     CONCN. BOUNDARY ARRAY    FOR LAYER 23 READ ON UNIT 31 USING FORMAT: "            (70I10) "
                     ------------------------------------------------------------------------------------------

                     CONCN. BOUNDARY ARRAY    FOR LAYER 24 READ ON UNIT 31 USING FORMAT: "            (70I10) "
                     ------------------------------------------------------------------------------------------

                     CONCN. BOUNDARY ARRAY    FOR LAYER 25 READ ON UNIT 31 USING FORMAT: "            (70I10) "
                     ------------------------------------------------------------------------------------------

                     CONCN. BOUNDARY ARRAY    FOR LAYER 26 READ ON UNIT 31 USING FORMAT: "            (70I10) "
                     ------------------------------------------------------------------------------------------

                     CONCN. BOUNDARY ARRAY    FOR LAYER 27 READ ON UNIT 31 USING FORMAT: "            (70I10) "
                     ------------------------------------------------------------------------------------------

                     CONCN. BOUNDARY ARRAY    FOR LAYER 28 READ ON UNIT 31 USING FORMAT: "            (70I10) "
                     ------------------------------------------------------------------------------------------

                     CONCN. BOUNDARY ARRAY    FOR LAYER 29 READ ON UNIT 31 USING FORMAT: "            (70I10) "
                     ------------------------------------------------------------------------------------------

                     CONCN. BOUNDARY ARRAY    FOR LAYER 30 READ ON UNIT 31 USING FORMAT: "            (70I10) "
                     ------------------------------------------------------------------------------------------

                     CONCN. BOUNDARY ARRAY    FOR LAYER 31 READ ON UNIT 31 USING FORMAT: "            (70I10) "
                     ------------------------------------------------------------------------------------------

                     CONCN. BOUNDARY ARRAY    FOR LAYER 32 READ ON UNIT 31 USING FORMAT: "            (70I10) "
                     ------------------------------------------------------------------------------------------

                     CONCN. BOUNDARY ARRAY    FOR LAYER 33 READ ON UNIT 31 USING FORMAT: "            (70I10) "
                     ------------------------------------------------------------------------------------------

                     CONCN. BOUNDARY ARRAY    FOR LAYER 34 READ ON UNIT 31 USING FORMAT: "            (70I10) "
                     ------------------------------------------------------------------------------------------

                     CONCN. BOUNDARY ARRAY    FOR LAYER 35 READ ON UNIT 31 USING FORMAT: "            (70I10) "
                     ------------------------------------------------------------------------------------------

                     CONCN. BOUNDARY ARRAY    FOR LAYER 36 READ ON UNIT 31 USING FORMAT: "            (70I10) "
                     ------------------------------------------------------------------------------------------

                     CONCN. BOUNDARY ARRAY    FOR LAYER 37 READ ON UNIT 31 USING FORMAT: "            (70I10) "
                     ------------------------------------------------------------------------------------------

                     CONCN. BOUNDARY ARRAY    FOR LAYER 38 READ ON UNIT 31 USING FORMAT: "            (70I10) "
                     ------------------------------------------------------------------------------------------

                     CONCN. BOUNDARY ARRAY    FOR LAYER 39 READ ON UNIT 31 USING FORMAT: "            (70I10) "
                     ------------------------------------------------------------------------------------------

                     CONCN. BOUNDARY ARRAY    FOR LAYER 40 READ ON UNIT 31 USING FORMAT: "            (70I10) "
                     ------------------------------------------------------------------------------------------

                     INITIAL CONC.: COMP.  01 FOR LAYER  1 READ ON UNIT 31 USING FORMAT: "          (70E15.6) "
                     ------------------------------------------------------------------------------------------

                     INITIAL CONC.: COMP.  01 FOR LAYER  2 READ ON UNIT 31 USING FORMAT: "          (70E15.6) "
                     ------------------------------------------------------------------------------------------

                     INITIAL CONC.: COMP.  01 FOR LAYER  3 READ ON UNIT 31 USING FORMAT: "          (70E15.6) "
                     ------------------------------------------------------------------------------------------

                     INITIAL CONC.: COMP.  01 FOR LAYER  4 READ ON UNIT 31 USING FORMAT: "          (70E15.6) "
                     ------------------------------------------------------------------------------------------

                     INITIAL CONC.: COMP.  01 FOR LAYER  5 READ ON UNIT 31 USING FORMAT: "          (70E15.6) "
                     ------------------------------------------------------------------------------------------

                     INITIAL CONC.: COMP.  01 FOR LAYER  6 READ ON UNIT 31 USING FORMAT: "          (70E15.6) "
                     ------------------------------------------------------------------------------------------

                     INITIAL CONC.: COMP.  01 FOR LAYER  7 READ ON UNIT 31 USING FORMAT: "          (70E15.6) "
                     ------------------------------------------------------------------------------------------

                     INITIAL CONC.: COMP.  01 FOR LAYER  8 READ ON UNIT 31 USING FORMAT: "          (70E15.6) "
                     ------------------------------------------------------------------------------------------

                     INITIAL CONC.: COMP.  01 FOR LAYER  9 READ ON UNIT 31 USING FORMAT: "          (70E15.6) "
                     ------------------------------------------------------------------------------------------

                     INITIAL CONC.: COMP.  01 FOR LAYER 10 READ ON UNIT 31 USING FORMAT: "          (70E15.6) "
                     ------------------------------------------------------------------------------------------

                     INITIAL CONC.: COMP.  01 FOR LAYER 11 READ ON UNIT 31 USING FORMAT: "          (70E15.6) "
                     ------------------------------------------------------------------------------------------

                     INITIAL CONC.: COMP.  01 FOR LAYER 12 READ ON UNIT 31 USING FORMAT: "          (70E15.6) "
                     ------------------------------------------------------------------------------------------

                     INITIAL CONC.: COMP.  01 FOR LAYER 13 READ ON UNIT 31 USING FORMAT: "          (70E15.6) "
                     ------------------------------------------------------------------------------------------

                     INITIAL CONC.: COMP.  01 FOR LAYER 14 READ ON UNIT 31 USING FORMAT: "          (70E15.6) "
                     ------------------------------------------------------------------------------------------

                     INITIAL CONC.: COMP.  01 FOR LAYER 15 READ ON UNIT 31 USING FORMAT: "          (70E15.6) "
                     ------------------------------------------------------------------------------------------

                     INITIAL CONC.: COMP.  01 FOR LAYER 16 READ ON UNIT 31 USING FORMAT: "          (70E15.6) "
                     ------------------------------------------------------------------------------------------

                     INITIAL CONC.: COMP.  01 FOR LAYER 17 READ ON UNIT 31 USING FORMAT: "          (70E15.6) "
                     ------------------------------------------------------------------------------------------

                     INITIAL CONC.: COMP.  01 FOR LAYER 18 READ ON UNIT 31 USING FORMAT: "          (70E15.6) "
                     ------------------------------------------------------------------------------------------

                     INITIAL CONC.: COMP.  01 FOR LAYER 19 READ ON UNIT 31 USING FORMAT: "          (70E15.6) "
                     ------------------------------------------------------------------------------------------

                     INITIAL CONC.: COMP.  01 FOR LAYER 20 READ ON UNIT 31 USING FORMAT: "          (70E15.6) "
                     ------------------------------------------------------------------------------------------

                     INITIAL CONC.: COMP.  01 FOR LAYER 21 READ ON UNIT 31 USING FORMAT: "          (70E15.6) "
                     ------------------------------------------------------------------------------------------

                     INITIAL CONC.: COMP.  01 FOR LAYER 22 READ ON UNIT 31 USING FORMAT: "          (70E15.6) "
                     ------------------------------------------------------------------------------------------

                     INITIAL CONC.: COMP.  01 FOR LAYER 23 READ ON UNIT 31 USING FORMAT: "          (70E15.6) "
                     ------------------------------------------------------------------------------------------

                     INITIAL CONC.: COMP.  01 FOR LAYER 24 READ ON UNIT 31 USING FORMAT: "          (70E15.6) "
                     ------------------------------------------------------------------------------------------

                     INITIAL CONC.: COMP.  01 FOR LAYER 25 READ ON UNIT 31 USING FORMAT: "          (70E15.6) "
                     ------------------------------------------------------------------------------------------

                     INITIAL CONC.: COMP.  01 FOR LAYER 26 READ ON UNIT 31 USING FORMAT: "          (70E15.6) "
                     ------------------------------------------------------------------------------------------

                     INITIAL CONC.: COMP.  01 FOR LAYER 27 READ ON UNIT 31 USING FORMAT: "          (70E15.6) "
                     ------------------------------------------------------------------------------------------

                     INITIAL CONC.: COMP.  01 FOR LAYER 28 READ ON UNIT 31 USING FORMAT: "          (70E15.6) "
                     ------------------------------------------------------------------------------------------

                     INITIAL CONC.: COMP.  01 FOR LAYER 29 READ ON UNIT 31 USING FORMAT: "          (70E15.6) "
                     ------------------------------------------------------------------------------------------

                     INITIAL CONC.: COMP.  01 FOR LAYER 30 READ ON UNIT 31 USING FORMAT: "          (70E15.6) "
                     ------------------------------------------------------------------------------------------

                     INITIAL CONC.: COMP.  01 FOR LAYER 31 READ ON UNIT 31 USING FORMAT: "          (70E15.6) "
                     ------------------------------------------------------------------------------------------

                     INITIAL CONC.: COMP.  01 FOR LAYER 32 READ ON UNIT 31 USING FORMAT: "          (70E15.6) "
                     ------------------------------------------------------------------------------------------

                     INITIAL CONC.: COMP.  01 FOR LAYER 33 READ ON UNIT 31 USING FORMAT: "          (70E15.6) "
                     ------------------------------------------------------------------------------------------

                     INITIAL CONC.: COMP.  01 FOR LAYER 34 READ ON UNIT 31 USING FORMAT: "          (70E15.6) "
                     ------------------------------------------------------------------------------------------

                     INITIAL CONC.: COMP.  01 FOR LAYER 35 READ ON UNIT 31 USING FORMAT: "          (70E15.6) "
                     ------------------------------------------------------------------------------------------

                     INITIAL CONC.: COMP.  01 FOR LAYER 36 READ ON UNIT 31 USING FORMAT: "          (70E15.6) "
                     ------------------------------------------------------------------------------------------

                     INITIAL CONC.: COMP.  01 FOR LAYER 37 READ ON UNIT 31 USING FORMAT: "          (70E15.6) "
                     ------------------------------------------------------------------------------------------

                     INITIAL CONC.: COMP.  01 FOR LAYER 38 READ ON UNIT 31 USING FORMAT: "          (70E15.6) "
                     ------------------------------------------------------------------------------------------

                     INITIAL CONC.: COMP.  01 FOR LAYER 39 READ ON UNIT 31 USING FORMAT: "          (70E15.6) "
                     ------------------------------------------------------------------------------------------

                     INITIAL CONC.: COMP.  01 FOR LAYER 40 READ ON UNIT 31 USING FORMAT: "          (70E15.6) "
                     ------------------------------------------------------------------------------------------

 VALUE INDICATING INACTIVE CONCENTRATION CELLS =   0.1000000E+31
 MINIMUM SATURATED THICKNESS [THKMIN] ALLOWED =  0.0100 OF TOTAL CELL THICKNESS


 OUTPUT CONTROL OPTIONS
 ----------------------

 DO NOT PRINT CELL CONCENTRATION
 DO NOT PRINT PARTICLE NUMBER IN EACH CELL
 DO NOT PRINT RETARDATION FACTOR
 DO NOT PRINT DISPERSION COEFFICIENT
 SAVE DISSOLVED PHASE CONCENTRATIONS IN UNFORMATTED FILES [MT3Dnnn.UCN]
  FOR EACH SPECIES ON UNITS 201 AND ABOVE

 SIMULATION RESULTS ARE SAVED EVERY  10 TRANSPORT STEP(S)

 NUMBER OF OBSERVATION POINTS =    0

 SAVE ONE-LINE SUMMARY OF MASS BUDGETS IN FILES [MT3Dnnn.MAS]
  FOR EACH SPECIES ON UNITS 601 AND ABOVE, EVERY  1 TRANSPORT STEPS

 MAXIMUM LENGTH ALONG THE X (J) AXIS =   70.00000    
 MAXIMUM LENGTH ALONG THE Y (I) AXIS =   9.999900    
 MAXIMUM LENGTH ALONG THE Z (K) AXIS =   20.00000    


 ADVECTION SOLUTION OPTIONS
 --------------------------

 ADVECTION IS SOLVED WITH THE UPSTREAM FINITE DIFFERENCE SCHEME
 COURANT NUMBER ALLOWED IN SOLVING THE ADVECTION TERM = 0.750    


 DISPERSION INPUT PARAMETERS
 ---------------------------

                                       LONG. DISPERSIVITY (AL)  =   3.000000     FOR LAYER  1
                                       LONG. DISPERSIVITY (AL)  =   3.000000     FOR LAYER  2
                                       LONG. DISPERSIVITY (AL)  =   3.000000     FOR LAYER  3
                                       LONG. DISPERSIVITY (AL)  =   3.000000     FOR LAYER  4
                                       LONG. DISPERSIVITY (AL)  =   3.000000     FOR LAYER  5
                                       LONG. DISPERSIVITY (AL)  =   3.000000     FOR LAYER  6
                                       LONG. DISPERSIVITY (AL)  =   3.000000     FOR LAYER  7
                                       LONG. DISPERSIVITY (AL)  =   3.000000     FOR LAYER  8
                                       LONG. DISPERSIVITY (AL)  =   3.000000     FOR LAYER  9
                                       LONG. DISPERSIVITY (AL)  =   3.000000     FOR LAYER 10
                                       LONG. DISPERSIVITY (AL)  =   3.000000     FOR LAYER 11
                                       LONG. DISPERSIVITY (AL)  =   3.000000     FOR LAYER 12
                                       LONG. DISPERSIVITY (AL)  =   3.000000     FOR LAYER 13
                                       LONG. DISPERSIVITY (AL)  =   3.000000     FOR LAYER 14
                                       LONG. DISPERSIVITY (AL)  =   3.000000     FOR LAYER 15
                                       LONG. DISPERSIVITY (AL)  =   3.000000     FOR LAYER 16
                                       LONG. DISPERSIVITY (AL)  =   3.000000     FOR LAYER 17
                                       LONG. DISPERSIVITY (AL)  =   3.000000     FOR LAYER 18
                                       LONG. DISPERSIVITY (AL)  =   3.000000     FOR LAYER 19
                                       LONG. DISPERSIVITY (AL)  =   3.000000     FOR LAYER 20
                                       LONG. DISPERSIVITY (AL)  =   3.000000     FOR LAYER 21
                                       LONG. DISPERSIVITY (AL)  =   3.000000     FOR LAYER 22
                                       LONG. DISPERSIVITY (AL)  =   3.000000     FOR LAYER 23
                                       LONG. DISPERSIVITY (AL)  =   3.000000     FOR LAYER 24
                                       LONG. DISPERSIVITY (AL)  =   3.000000     FOR LAYER 25
                                       LONG. DISPERSIVITY (AL)  =   3.000000     FOR LAYER 26
                                       LONG. DISPERSIVITY (AL)  =   3.000000     FOR LAYER 27
                                       LONG. DISPERSIVITY (AL)  =   3.000000     FOR LAYER 28
                                       LONG. DISPERSIVITY (AL)  =   3.000000     FOR LAYER 29
                                       LONG. DISPERSIVITY (AL)  =   3.000000     FOR LAYER 30
                                       LONG. DISPERSIVITY (AL)  =   3.000000     FOR LAYER 31
                                       LONG. DISPERSIVITY (AL)  =   3.000000     FOR LAYER 32
                                       LONG. DISPERSIVITY (AL)  =   3.000000     FOR LAYER 33
                                       LONG. DISPERSIVITY (AL)  =   3.000000     FOR LAYER 34
                                       LONG. DISPERSIVITY (AL)  =   3.000000     FOR LAYER 35
                                       LONG. DISPERSIVITY (AL)  =   3.000000     FOR LAYER 36
                                       LONG. DISPERSIVITY (AL)  =   3.000000     FOR LAYER 37
                                       LONG. DISPERSIVITY (AL)  =   3.000000     FOR LAYER 38
                                       LONG. DISPERSIVITY (AL)  =   3.000000     FOR LAYER 39
                                       LONG. DISPERSIVITY (AL)  =   3.000000     FOR LAYER 40
                                       H. TRANS./LONG. DISP.    =  1.0000000    
                                       V. TRANS./LONG. DISP.    =  1.0000000    
                                       DIFFUSION COEFFICIENT    =   0.000000    



                                               SOLUTION BY THE GENERALIZED CONJUGATE GRADIENT METHOD
                                               -----------------------------------------------------
                                     MAXIMUM OUTER ITERATIONS ALLOWED FOR CLOSURE =        1
                                     MAXIMUM INNER ITERATIONS ALLOWED FOR CLOSURE =      500
                                                    PRECONDITIONING TYPE SELECTED =    1
                                                           ACCELERATION PARAMETER =    1.00000    
                                       CONCENTRATION CHANGE CRITERION FOR CLOSURE =    0.10000E-06
                                       GCG CONCENTRATION CHANGE PRINTOUT INTERVAL =      999


                                   ++++++++++++++++++++++++++++++++++++++++++++++++++++++++++++++
                                                       STRESS PERIOD NO.  001
                                   ++++++++++++++++++++++++++++++++++++++++++++++++++++++++++++++


 LENGTH OF CURRENT STRESS PERIOD =  1.0000000    
 NUMBER OF TIME STEPS FOR CURRENT STRESS PERIOD =  100
 TIME STEP MULTIPLIER USED IN FLOW SOLUTION =  1.0000000    
 USER-SPECIFIED TRANSPORT STEPSIZE =   0.000000    D   
 MAXIMUM NUMBER OF TRANSPORT STEPS ALLOWED  IN ONE FLOW TIME STEP =     50000
 MULTIPLIER FOR SUCCESSIVE TRANSPORT STEPS  [USED IN IMPLICIT SCHEMES] =     1.000
 MAXIMUM TRANSPORT STEP SIZE  [USED IN IMPLICIT SCHEMES] =   0.000000    D   
1
                            STRESS PERIOD NO.    1, LENGTH =  1.0000000    
                            -----------------------------------------------

                              NUMBER OF TIME STEPS =   100

                               MULTIPLIER FOR DELT =     1.000

                            INITIAL TIME STEP SIZE =  0.1000000E-01

 NO. OF POINT SINKS/SOURCES OF SPECIFIED CONCONCENTRATIONS =    0 IN STRESS PERIOD  1

 CHD NO.   LAYER   ROW   COL    START HEAD        END HEAD         
 ------------------------------------------------------------------
      1      1      1     31       20.00           20.00    
      2      1      1     32       20.00           20.00    
      3      1      1     33       20.00           20.00    
      4      1      1     34       20.00           20.00    
      5      1      1     35       20.00           20.00    
      6      1      1     36       20.00           20.00    
      7      1      1     37       20.00           20.00    
      8      1      1     38       20.00           20.00    
      9      1      1     39       20.00           20.00    
     10      1      1     40       20.00           20.00    
     11      1      1     41       20.00           20.00    
     12      1      1     42       20.00           20.00    
     13      1      1     43       20.00           20.00    
     14      1      1     44       20.00           20.00    
     15      1      1     45       20.00           20.00    
     16      1      1     46       20.00           20.00    
     17      1      1     47       20.00           20.00    
     18      1      1     48       20.00           20.00    
     19      1      1     49       20.00           20.00    
     20      1      1     50       20.00           20.00    
     21      1      1     51       20.00           20.00    
     22      1      1     52       20.00           20.00    
     23      1      1     53       20.00           20.00    
     24      1      1     54       20.00           20.00    
     25      1      1     55       20.00           20.00    
     26      1      1     56       20.00           20.00    
     27      1      1     57       20.00           20.00    
     28      1      1     58       20.00           20.00    
     29      1      1     59       20.00           20.00    
     30      1      1     60       20.00           20.00    
     31      1      1     61       20.00           20.00    
     32      1      1     62       20.00           20.00    
     33      1      1     63       20.00           20.00    
     34      1      1     64       20.00           20.00    
     35      1      1     65       20.00           20.00    
     36      1      1     66       20.00           20.00    
     37      1      1     67       20.00           20.00    
     38      1      1     68       20.00           20.00    
     39      1      1     69       20.00           20.00    
     40      1      1     70       20.00           20.00    
     41      1      2     31       20.00           20.00    
     42      1      2     32       20.00           20.00    
     43      1      2     33       20.00           20.00    
     44      1      2     34       20.00           20.00    
     45      1      2     35       20.00           20.00    
     46      1      2     36       20.00           20.00    
     47      1      2     37       20.00           20.00    
     48      1      2     38       20.00           20.00    
     49      1      2     39       20.00           20.00    
     50      1      2     40       20.00           20.00    
     51      1      2     41       20.00           20.00    
     52      1      2     42       20.00           20.00    
     53      1      2     43       20.00           20.00    
     54      1      2     44       20.00           20.00    
     55      1      2     45       20.00           20.00    
     56      1      2     46       20.00           20.00    
     57      1      2     47       20.00           20.00    
     58      1      2     48       20.00           20.00    
     59      1      2     49       20.00           20.00    
     60      1      2     50       20.00           20.00    
     61      1      2     51       20.00           20.00    
     62      1      2     52       20.00           20.00    
     63      1      2     53       20.00           20.00    
     64      1      2     54       20.00           20.00    
     65      1      2     55       20.00           20.00    
     66      1      2     56       20.00           20.00    
     67      1      2     57       20.00           20.00    
     68      1      2     58       20.00           20.00    
     69      1      2     59       20.00           20.00    
     70      1      2     60       20.00           20.00    
     71      1      2     61       20.00           20.00    
     72      1      2     62       20.00           20.00    
     73      1      2     63       20.00           20.00    
     74      1      2     64       20.00           20.00    
     75      1      2     65       20.00           20.00    
     76      1      2     66       20.00           20.00    
     77      1      2     67       20.00           20.00    
     78      1      2     68       20.00           20.00    
     79      1      2     69       20.00           20.00    
     80      1      2     70       20.00           20.00    
     81      1      3     31       20.00           20.00    
     82      1      3     32       20.00           20.00    
     83      1      3     33       20.00           20.00    
     84      1      3     34       20.00           20.00    
     85      1      3     35       20.00           20.00    
     86      1      3     36       20.00           20.00    
     87      1      3     37       20.00           20.00    
     88      1      3     38       20.00           20.00    
     89      1      3     39       20.00           20.00    
     90      1      3     40       20.00           20.00    
     91      1      3     41       20.00           20.00    
     92      1      3     42       20.00           20.00    
     93      1      3     43       20.00           20.00    
     94      1      3     44       20.00           20.00    
     95      1      3     45       20.00           20.00    
     96      1      3     46       20.00           20.00    
     97      1      3     47       20.00           20.00    
     98      1      3     48       20.00           20.00    
     99      1      3     49       20.00           20.00    
    100      1      3     50       20.00           20.00    
    101      1      3     51       20.00           20.00    
    102      1      3     52       20.00           20.00    
    103      1      3     53       20.00           20.00    
    104      1      3     54       20.00           20.00    
    105      1      3     55       20.00           20.00    
    106      1      3     56       20.00           20.00    
    107      1      3     57       20.00           20.00    
    108      1      3     58       20.00           20.00    
    109      1      3     59       20.00           20.00    
    110      1      3     60       20.00           20.00    
    111      1      3     61       20.00           20.00    
    112      1      3     62       20.00           20.00    
    113      1      3     63       20.00           20.00    
    114      1      3     64       20.00           20.00    
    115      1      3     65       20.00           20.00    
    116      1      3     66       20.00           20.00    
    117      1      3     67       20.00           20.00    
    118      1      3     68       20.00           20.00    
    119      1      3     69       20.00           20.00    
    120      1      3     70       20.00           20.00    


    120 TIME-VARIANT SPECIFIED-HEAD CELLS


                                          ================================================
                                                         FROM TIME =   0.0000     TO   0.10000E-01

 
 SOLVING FOR HEAD 
 FLOW MODEL IS TRANSIENT
 FLOW MODEL CONTAINS CONSTANT-HEAD CELLS


 MAXIMUM STEPSIZE DURING WHICH ANY PARTICLE CANNOT MOVE MORE THAN ONE CELL
 =  1.187    (WHEN MIN. R.F.=1)  AT K=   3, I=   2, J=  30

 MAXIMUM STEPSIZE WHICH MEETS STABILITY CRITERION OF THE ADVECTION TERM
 (FOR PURE FINITE-DIFFERENCE OPTION, MIXELM=0) 
 = 0.9383    (WHEN MIN. R.F.=1)  AT K=   3, I=   2, J=  31


 TOTAL NUMBER OF POINT SOURCES/SINKS PRESENT IN THE FLOW MODEL =   240

 MAXIMUM STEPSIZE WHICH MEETS STABILITY CRITERION OF THE SINK & SOURCE TERM
 = 0.1000E+31(WHEN MIN. R.F.=1)  AT K=   0, I=   0, J=   0

 MAXIMUM STEPSIZE WHICH MEETS STABILITY CRITERION OF THE DISPERSION TERM
 = 0.5085E-01(WHEN MIN. R.F.=1)  AT K=   3, I=   2, J=  30


     1 CALLS TO GCG PACKAGE FOR TRANSPORT TIME STEP   1 IN FLOW TIME STEP   1 STRESS PERIOD   1
     3 TOTAL ITERATIONS

 OUTPUT CONTROL FOR STRESS PERIOD    1   TIME STEP   1
    SAVE HEAD FOR ALL LAYERS
    SAVE BUDGET
 
 SOLVING FOR HEAD 
 FLOW MODEL IS TRANSIENT
 FLOW MODEL CONTAINS CONSTANT-HEAD CELLS


 MAXIMUM STEPSIZE DURING WHICH ANY PARTICLE CANNOT MOVE MORE THAN ONE CELL
 =  1.122    (WHEN MIN. R.F.=1)  AT K=   3, I=   2, J=  30

 MAXIMUM STEPSIZE WHICH MEETS STABILITY CRITERION OF THE ADVECTION TERM
 (FOR PURE FINITE-DIFFERENCE OPTION, MIXELM=0) 
 = 0.8869    (WHEN MIN. R.F.=1)  AT K=   3, I=   2, J=  31


 TOTAL NUMBER OF POINT SOURCES/SINKS PRESENT IN THE FLOW MODEL =   240

 MAXIMUM STEPSIZE WHICH MEETS STABILITY CRITERION OF THE SINK & SOURCE TERM
 = 0.1000E+31(WHEN MIN. R.F.=1)  AT K=   0, I=   0, J=   0

 MAXIMUM STEPSIZE WHICH MEETS STABILITY CRITERION OF THE DISPERSION TERM
 = 0.4808E-01(WHEN MIN. R.F.=1)  AT K=   3, I=   2, J=  30
     1 CALLS TO GCG PACKAGE FOR TRANSPORT TIME STEP   2 IN FLOW TIME STEP   1 STRESS PERIOD   1
     5 TOTAL ITERATIONS
  MAXIMUM CONCENTRATION CHANGES FOR EACH ITERATION:
  MAX. CHANGE LAYER,ROW,COL MAX. CHANGE LAYER,ROW,COL MAX. CHANGE LAYER,ROW,COL MAX. CHANGE LAYER,ROW,COL MAX. CHANGE LAYER,ROW,COL
 ------------------------------------------------------------------------------------------------------------------------------------
   0.4615E-02 (  2,  3, 40)  0.1141E-03 (  3,  3, 36)  0.5058E-05 (  4,  2, 31)  0.3950E-06 (  3,  2, 31)  0.2013E-07 (  4,  2, 31)
 UBDSV2 SAVING "   CONSTANT HEAD" ON UNIT  53 AT TIME STEP  1, STRESS PERIOD   1
 UBDSV1 SAVING "FLOW RIGHT FACE " ON UNIT  53 AT TIME STEP  1, STRESS PERIOD   1
 UBDSV1 SAVING "FLOW FRONT FACE " ON UNIT  53 AT TIME STEP  1, STRESS PERIOD   1
 UBDSV1 SAVING "FLOW LOWER FACE " ON UNIT  53 AT TIME STEP  1, STRESS PERIOD   1
 UBDSV1 SAVING "            DCDT" ON UNIT  53 AT TIME STEP  1, STRESS PERIOD   1

 HEAD WILL BE SAVED ON UNIT   51 AT END OF TIME STEP   1, STRESS PERIOD    1


                                          ================================================
                                                         FROM TIME =  0.10000E-01 TO   0.20000E-01

 
 SOLVING FOR HEAD 
 FLOW MODEL IS TRANSIENT
 FLOW MODEL CONTAINS CONSTANT-HEAD CELLS


 MAXIMUM STEPSIZE DURING WHICH ANY PARTICLE CANNOT MOVE MORE THAN ONE CELL
 =  1.127    (WHEN MIN. R.F.=1)  AT K=   3, I=   2, J=  30

 MAXIMUM STEPSIZE WHICH MEETS STABILITY CRITERION OF THE ADVECTION TERM
 (FOR PURE FINITE-DIFFERENCE OPTION, MIXELM=0) 
 = 0.8910    (WHEN MIN. R.F.=1)  AT K=   3, I=   2, J=  31


 TOTAL NUMBER OF POINT SOURCES/SINKS PRESENT IN THE FLOW MODEL =   240

 MAXIMUM STEPSIZE WHICH MEETS STABILITY CRITERION OF THE SINK & SOURCE TERM
 = 0.1000E+31(WHEN MIN. R.F.=1)  AT K=   0, I=   0, J=   0

 MAXIMUM STEPSIZE WHICH MEETS STABILITY CRITERION OF THE DISPERSION TERM
 = 0.4832E-01(WHEN MIN. R.F.=1)  AT K=   3, I=   2, J=  30


     1 CALLS TO GCG PACKAGE FOR TRANSPORT TIME STEP   1 IN FLOW TIME STEP   2 STRESS PERIOD   1
     5 TOTAL ITERATIONS
  MAXIMUM CONCENTRATION CHANGES FOR EACH ITERATION:
  MAX. CHANGE LAYER,ROW,COL MAX. CHANGE LAYER,ROW,COL MAX. CHANGE LAYER,ROW,COL MAX. CHANGE LAYER,ROW,COL MAX. CHANGE LAYER,ROW,COL
 ------------------------------------------------------------------------------------------------------------------------------------
   0.4655E-02 (  2,  3, 39)  0.1341E-03 (  3,  3, 35)  0.6546E-05 (  4,  2, 31)  0.5395E-06 (  3,  2, 31)  0.2984E-07 (  4,  2, 31)

 NO OUTPUT CONTROL FOR STRESS PERIOD    1   TIME STEP   2


                                          ================================================
                                                         FROM TIME =  0.20000E-01 TO   0.30000E-01

 
 SOLVING FOR HEAD 
 FLOW MODEL IS TRANSIENT
 FLOW MODEL CONTAINS CONSTANT-HEAD CELLS


 MAXIMUM STEPSIZE DURING WHICH ANY PARTICLE CANNOT MOVE MORE THAN ONE CELL
 =  1.129    (WHEN MIN. R.F.=1)  AT K=   3, I=   2, J=  30

 MAXIMUM STEPSIZE WHICH MEETS STABILITY CRITERION OF THE ADVECTION TERM
 (FOR PURE FINITE-DIFFERENCE OPTION, MIXELM=0) 
 = 0.8930    (WHEN MIN. R.F.=1)  AT K=   3, I=   2, J=  31


 TOTAL NUMBER OF POINT SOURCES/SINKS PRESENT IN THE FLOW MODEL =   240

 MAXIMUM STEPSIZE WHICH MEETS STABILITY CRITERION OF THE SINK & SOURCE TERM
 = 0.1000E+31(WHEN MIN. R.F.=1)  AT K=   0, I=   0, J=   0

 MAXIMUM STEPSIZE WHICH MEETS STABILITY CRITERION OF THE DISPERSION TERM
 = 0.4841E-01(WHEN MIN. R.F.=1)  AT K=   3, I=   2, J=  30


     1 CALLS TO GCG PACKAGE FOR TRANSPORT TIME STEP   1 IN FLOW TIME STEP   3 STRESS PERIOD   1
     5 TOTAL ITERATIONS
  MAXIMUM CONCENTRATION CHANGES FOR EACH ITERATION:
  MAX. CHANGE LAYER,ROW,COL MAX. CHANGE LAYER,ROW,COL MAX. CHANGE LAYER,ROW,COL MAX. CHANGE LAYER,ROW,COL MAX. CHANGE LAYER,ROW,COL
 ------------------------------------------------------------------------------------------------------------------------------------
   0.4441E-02 (  2,  3, 39)  0.1296E-03 (  3,  3, 35)  0.6337E-05 (  4,  2, 31)  0.5188E-06 (  3,  2, 31)  0.2856E-07 (  4,  2, 31)

 NO OUTPUT CONTROL FOR STRESS PERIOD    1   TIME STEP   3


                                          ================================================
                                                         FROM TIME =  0.30000E-01 TO   0.40000E-01

 
 SOLVING FOR HEAD 
 FLOW MODEL IS TRANSIENT
 FLOW MODEL CONTAINS CONSTANT-HEAD CELLS


 MAXIMUM STEPSIZE DURING WHICH ANY PARTICLE CANNOT MOVE MORE THAN ONE CELL
 =  1.128    (WHEN MIN. R.F.=1)  AT K=   3, I=   2, J=  30

 MAXIMUM STEPSIZE WHICH MEETS STABILITY CRITERION OF THE ADVECTION TERM
 (FOR PURE FINITE-DIFFERENCE OPTION, MIXELM=0) 
 = 0.8924    (WHEN MIN. R.F.=1)  AT K=   3, I=   2, J=  31


 TOTAL NUMBER OF POINT SOURCES/SINKS PRESENT IN THE FLOW MODEL =   240

 MAXIMUM STEPSIZE WHICH MEETS STABILITY CRITERION OF THE SINK & SOURCE TERM
 = 0.1000E+31(WHEN MIN. R.F.=1)  AT K=   0, I=   0, J=   0

 MAXIMUM STEPSIZE WHICH MEETS STABILITY CRITERION OF THE DISPERSION TERM
 = 0.4837E-01(WHEN MIN. R.F.=1)  AT K=   3, I=   2, J=  30


     1 CALLS TO GCG PACKAGE FOR TRANSPORT TIME STEP   1 IN FLOW TIME STEP   4 STRESS PERIOD   1
     5 TOTAL ITERATIONS
  MAXIMUM CONCENTRATION CHANGES FOR EACH ITERATION:
  MAX. CHANGE LAYER,ROW,COL MAX. CHANGE LAYER,ROW,COL MAX. CHANGE LAYER,ROW,COL MAX. CHANGE LAYER,ROW,COL MAX. CHANGE LAYER,ROW,COL
 ------------------------------------------------------------------------------------------------------------------------------------
   0.4432E-02 (  2,  3, 40)  0.1298E-03 (  3,  3, 35)  0.6138E-05 (  4,  2, 31)  0.5015E-06 (  3,  2, 31)  0.2782E-07 (  4,  2, 31)

 NO OUTPUT CONTROL FOR STRESS PERIOD    1   TIME STEP   4


                                          ================================================
                                                         FROM TIME =  0.40000E-01 TO   0.50000E-01

 
 SOLVING FOR HEAD 
 FLOW MODEL IS TRANSIENT
 FLOW MODEL CONTAINS CONSTANT-HEAD CELLS


 MAXIMUM STEPSIZE DURING WHICH ANY PARTICLE CANNOT MOVE MORE THAN ONE CELL
 =  1.127    (WHEN MIN. R.F.=1)  AT K=   3, I=   2, J=  30

 MAXIMUM STEPSIZE WHICH MEETS STABILITY CRITERION OF THE ADVECTION TERM
 (FOR PURE FINITE-DIFFERENCE OPTION, MIXELM=0) 
 = 0.8917    (WHEN MIN. R.F.=1)  AT K=   3, I=   2, J=  31


 TOTAL NUMBER OF POINT SOURCES/SINKS PRESENT IN THE FLOW MODEL =   240

 MAXIMUM STEPSIZE WHICH MEETS STABILITY CRITERION OF THE SINK & SOURCE TERM
 = 0.1000E+31(WHEN MIN. R.F.=1)  AT K=   0, I=   0, J=   0

 MAXIMUM STEPSIZE WHICH MEETS STABILITY CRITERION OF THE DISPERSION TERM
 = 0.4832E-01(WHEN MIN. R.F.=1)  AT K=   3, I=   2, J=  30


     1 CALLS TO GCG PACKAGE FOR TRANSPORT TIME STEP   1 IN FLOW TIME STEP   5 STRESS PERIOD   1
     5 TOTAL ITERATIONS
  MAXIMUM CONCENTRATION CHANGES FOR EACH ITERATION:
  MAX. CHANGE LAYER,ROW,COL MAX. CHANGE LAYER,ROW,COL MAX. CHANGE LAYER,ROW,COL MAX. CHANGE LAYER,ROW,COL MAX. CHANGE LAYER,ROW,COL
 ------------------------------------------------------------------------------------------------------------------------------------
   0.4360E-02 (  2,  3, 40)  0.1300E-03 (  3,  3, 35)  0.6052E-05 (  4,  3, 34)  0.4832E-06 (  3,  2, 31)  0.2693E-07 (  4,  2, 31)

 NO OUTPUT CONTROL FOR STRESS PERIOD    1   TIME STEP   5


                                          ================================================
                                                         FROM TIME =  0.50000E-01 TO   0.60000E-01

 
 SOLVING FOR HEAD 
 FLOW MODEL IS TRANSIENT
 FLOW MODEL CONTAINS CONSTANT-HEAD CELLS


 MAXIMUM STEPSIZE DURING WHICH ANY PARTICLE CANNOT MOVE MORE THAN ONE CELL
 =  1.127    (WHEN MIN. R.F.=1)  AT K=   3, I=   2, J=  30

 MAXIMUM STEPSIZE WHICH MEETS STABILITY CRITERION OF THE ADVECTION TERM
 (FOR PURE FINITE-DIFFERENCE OPTION, MIXELM=0) 
 = 0.8917    (WHEN MIN. R.F.=1)  AT K=   3, I=   2, J=  31


 TOTAL NUMBER OF POINT SOURCES/SINKS PRESENT IN THE FLOW MODEL =   240

 MAXIMUM STEPSIZE WHICH MEETS STABILITY CRITERION OF THE SINK & SOURCE TERM
 = 0.1000E+31(WHEN MIN. R.F.=1)  AT K=   0, I=   0, J=   0

 MAXIMUM STEPSIZE WHICH MEETS STABILITY CRITERION OF THE DISPERSION TERM
 = 0.4831E-01(WHEN MIN. R.F.=1)  AT K=   3, I=   2, J=  30


     1 CALLS TO GCG PACKAGE FOR TRANSPORT TIME STEP   1 IN FLOW TIME STEP   6 STRESS PERIOD   1
     5 TOTAL ITERATIONS
  MAXIMUM CONCENTRATION CHANGES FOR EACH ITERATION:
  MAX. CHANGE LAYER,ROW,COL MAX. CHANGE LAYER,ROW,COL MAX. CHANGE LAYER,ROW,COL MAX. CHANGE LAYER,ROW,COL MAX. CHANGE LAYER,ROW,COL
 ------------------------------------------------------------------------------------------------------------------------------------
   0.4252E-02 (  2,  3, 40)  0.1292E-03 (  3,  3, 35)  0.5948E-05 (  4,  3, 34)  0.4678E-06 (  3,  2, 31)  0.2611E-07 (  4,  2, 31)

 NO OUTPUT CONTROL FOR STRESS PERIOD    1   TIME STEP   6


                                          ================================================
                                                         FROM TIME =  0.60000E-01 TO   0.70000E-01

 
 SOLVING FOR HEAD 
 FLOW MODEL IS TRANSIENT
 FLOW MODEL CONTAINS CONSTANT-HEAD CELLS


 MAXIMUM STEPSIZE DURING WHICH ANY PARTICLE CANNOT MOVE MORE THAN ONE CELL
 =  1.127    (WHEN MIN. R.F.=1)  AT K=   3, I=   2, J=  30

 MAXIMUM STEPSIZE WHICH MEETS STABILITY CRITERION OF THE ADVECTION TERM
 (FOR PURE FINITE-DIFFERENCE OPTION, MIXELM=0) 
 = 0.8917    (WHEN MIN. R.F.=1)  AT K=   3, I=   2, J=  31


 TOTAL NUMBER OF POINT SOURCES/SINKS PRESENT IN THE FLOW MODEL =   240

 MAXIMUM STEPSIZE WHICH MEETS STABILITY CRITERION OF THE SINK & SOURCE TERM
 = 0.1000E+31(WHEN MIN. R.F.=1)  AT K=   0, I=   0, J=   0

 MAXIMUM STEPSIZE WHICH MEETS STABILITY CRITERION OF THE DISPERSION TERM
 = 0.4830E-01(WHEN MIN. R.F.=1)  AT K=   3, I=   2, J=  30


     1 CALLS TO GCG PACKAGE FOR TRANSPORT TIME STEP   1 IN FLOW TIME STEP   7 STRESS PERIOD   1
     5 TOTAL ITERATIONS
  MAXIMUM CONCENTRATION CHANGES FOR EACH ITERATION:
  MAX. CHANGE LAYER,ROW,COL MAX. CHANGE LAYER,ROW,COL MAX. CHANGE LAYER,ROW,COL MAX. CHANGE LAYER,ROW,COL MAX. CHANGE LAYER,ROW,COL
 ------------------------------------------------------------------------------------------------------------------------------------
   0.4164E-02 (  2,  3, 40)  0.1283E-03 (  3,  3, 35)  0.5839E-05 (  4,  3, 34)  0.4553E-06 (  3,  2, 31)  0.2544E-07 (  4,  2, 31)

 NO OUTPUT CONTROL FOR STRESS PERIOD    1   TIME STEP   7


                                          ================================================
                                                         FROM TIME =  0.70000E-01 TO   0.80000E-01

 
 SOLVING FOR HEAD 
 FLOW MODEL IS TRANSIENT
 FLOW MODEL CONTAINS CONSTANT-HEAD CELLS


 MAXIMUM STEPSIZE DURING WHICH ANY PARTICLE CANNOT MOVE MORE THAN ONE CELL
 =  1.127    (WHEN MIN. R.F.=1)  AT K=   3, I=   2, J=  30

 MAXIMUM STEPSIZE WHICH MEETS STABILITY CRITERION OF THE ADVECTION TERM
 (FOR PURE FINITE-DIFFERENCE OPTION, MIXELM=0) 
 = 0.8916    (WHEN MIN. R.F.=1)  AT K=   3, I=   2, J=  31


 TOTAL NUMBER OF POINT SOURCES/SINKS PRESENT IN THE FLOW MODEL =   240

 MAXIMUM STEPSIZE WHICH MEETS STABILITY CRITERION OF THE SINK & SOURCE TERM
 = 0.1000E+31(WHEN MIN. R.F.=1)  AT K=   0, I=   0, J=   0

 MAXIMUM STEPSIZE WHICH MEETS STABILITY CRITERION OF THE DISPERSION TERM
 = 0.4828E-01(WHEN MIN. R.F.=1)  AT K=   3, I=   2, J=  30


     1 CALLS TO GCG PACKAGE FOR TRANSPORT TIME STEP   1 IN FLOW TIME STEP   8 STRESS PERIOD   1
     5 TOTAL ITERATIONS
  MAXIMUM CONCENTRATION CHANGES FOR EACH ITERATION:
  MAX. CHANGE LAYER,ROW,COL MAX. CHANGE LAYER,ROW,COL MAX. CHANGE LAYER,ROW,COL MAX. CHANGE LAYER,ROW,COL MAX. CHANGE LAYER,ROW,COL
 ------------------------------------------------------------------------------------------------------------------------------------
   0.4086E-02 (  2,  3, 40)  0.1275E-03 (  3,  3, 35)  0.5737E-05 (  4,  3, 34)  0.4445E-06 (  3,  2, 31)  0.2488E-07 (  4,  2, 31)

 NO OUTPUT CONTROL FOR STRESS PERIOD    1   TIME STEP   8


                                          ================================================
                                                         FROM TIME =  0.80000E-01 TO   0.90000E-01

 
 SOLVING FOR HEAD 
 FLOW MODEL IS TRANSIENT
 FLOW MODEL CONTAINS CONSTANT-HEAD CELLS


 MAXIMUM STEPSIZE DURING WHICH ANY PARTICLE CANNOT MOVE MORE THAN ONE CELL
 =  1.126    (WHEN MIN. R.F.=1)  AT K=   3, I=   2, J=  30

 MAXIMUM STEPSIZE WHICH MEETS STABILITY CRITERION OF THE ADVECTION TERM
 (FOR PURE FINITE-DIFFERENCE OPTION, MIXELM=0) 
 = 0.8916    (WHEN MIN. R.F.=1)  AT K=   3, I=   2, J=  31


 TOTAL NUMBER OF POINT SOURCES/SINKS PRESENT IN THE FLOW MODEL =   240

 MAXIMUM STEPSIZE WHICH MEETS STABILITY CRITERION OF THE SINK & SOURCE TERM
 = 0.1000E+31(WHEN MIN. R.F.=1)  AT K=   0, I=   0, J=   0

 MAXIMUM STEPSIZE WHICH MEETS STABILITY CRITERION OF THE DISPERSION TERM
 = 0.4827E-01(WHEN MIN. R.F.=1)  AT K=   3, I=   2, J=  30


     1 CALLS TO GCG PACKAGE FOR TRANSPORT TIME STEP   1 IN FLOW TIME STEP   9 STRESS PERIOD   1
     5 TOTAL ITERATIONS
  MAXIMUM CONCENTRATION CHANGES FOR EACH ITERATION:
  MAX. CHANGE LAYER,ROW,COL MAX. CHANGE LAYER,ROW,COL MAX. CHANGE LAYER,ROW,COL MAX. CHANGE LAYER,ROW,COL MAX. CHANGE LAYER,ROW,COL
 ------------------------------------------------------------------------------------------------------------------------------------
   0.4011E-02 (  2,  3, 41)  0.1267E-03 (  3,  3, 35)  0.5638E-05 (  4,  3, 33)  0.4350E-06 (  3,  2, 31)  0.2438E-07 (  4,  2, 31)

 NO OUTPUT CONTROL FOR STRESS PERIOD    1   TIME STEP   9


                                          ================================================
                                                         FROM TIME =  0.90000E-01 TO   0.10000E+00

 
 SOLVING FOR HEAD 
 FLOW MODEL IS TRANSIENT
 FLOW MODEL CONTAINS CONSTANT-HEAD CELLS


 MAXIMUM STEPSIZE DURING WHICH ANY PARTICLE CANNOT MOVE MORE THAN ONE CELL
 =  1.126    (WHEN MIN. R.F.=1)  AT K=   3, I=   2, J=  30

 MAXIMUM STEPSIZE WHICH MEETS STABILITY CRITERION OF THE ADVECTION TERM
 (FOR PURE FINITE-DIFFERENCE OPTION, MIXELM=0) 
 = 0.8916    (WHEN MIN. R.F.=1)  AT K=   3, I=   2, J=  31


 TOTAL NUMBER OF POINT SOURCES/SINKS PRESENT IN THE FLOW MODEL =   240

 MAXIMUM STEPSIZE WHICH MEETS STABILITY CRITERION OF THE SINK & SOURCE TERM
 = 0.1000E+31(WHEN MIN. R.F.=1)  AT K=   0, I=   0, J=   0

 MAXIMUM STEPSIZE WHICH MEETS STABILITY CRITERION OF THE DISPERSION TERM
 = 0.4826E-01(WHEN MIN. R.F.=1)  AT K=   3, I=   2, J=  30


     1 CALLS TO GCG PACKAGE FOR TRANSPORT TIME STEP   1 IN FLOW TIME STEP  10 STRESS PERIOD   1
     5 TOTAL ITERATIONS
  MAXIMUM CONCENTRATION CHANGES FOR EACH ITERATION:
  MAX. CHANGE LAYER,ROW,COL MAX. CHANGE LAYER,ROW,COL MAX. CHANGE LAYER,ROW,COL MAX. CHANGE LAYER,ROW,COL MAX. CHANGE LAYER,ROW,COL
 ------------------------------------------------------------------------------------------------------------------------------------
   0.3937E-02 (  2,  3, 41)  0.1258E-03 (  3,  3, 35)  0.5539E-05 (  4,  3, 33)  0.4267E-06 (  3,  2, 31)  0.2395E-07 (  4,  2, 31)

 NO OUTPUT CONTROL FOR STRESS PERIOD    1   TIME STEP  10


                                          ================================================
                                                         FROM TIME =  0.10000E+00 TO   0.11000    

 
 SOLVING FOR HEAD 
 FLOW MODEL IS TRANSIENT
 FLOW MODEL CONTAINS CONSTANT-HEAD CELLS


 MAXIMUM STEPSIZE DURING WHICH ANY PARTICLE CANNOT MOVE MORE THAN ONE CELL
 =  1.126    (WHEN MIN. R.F.=1)  AT K=   3, I=   2, J=  30

 MAXIMUM STEPSIZE WHICH MEETS STABILITY CRITERION OF THE ADVECTION TERM
 (FOR PURE FINITE-DIFFERENCE OPTION, MIXELM=0) 
 = 0.8916    (WHEN MIN. R.F.=1)  AT K=   3, I=   2, J=  31


 TOTAL NUMBER OF POINT SOURCES/SINKS PRESENT IN THE FLOW MODEL =   240

 MAXIMUM STEPSIZE WHICH MEETS STABILITY CRITERION OF THE SINK & SOURCE TERM
 = 0.1000E+31(WHEN MIN. R.F.=1)  AT K=   0, I=   0, J=   0

 MAXIMUM STEPSIZE WHICH MEETS STABILITY CRITERION OF THE DISPERSION TERM
 = 0.4825E-01(WHEN MIN. R.F.=1)  AT K=   3, I=   2, J=  30


     1 CALLS TO GCG PACKAGE FOR TRANSPORT TIME STEP   1 IN FLOW TIME STEP  11 STRESS PERIOD   1
     5 TOTAL ITERATIONS
  MAXIMUM CONCENTRATION CHANGES FOR EACH ITERATION:
  MAX. CHANGE LAYER,ROW,COL MAX. CHANGE LAYER,ROW,COL MAX. CHANGE LAYER,ROW,COL MAX. CHANGE LAYER,ROW,COL MAX. CHANGE LAYER,ROW,COL
 ------------------------------------------------------------------------------------------------------------------------------------
   0.3866E-02 (  2,  3, 41)  0.1248E-03 (  3,  3, 35)  0.5442E-05 (  4,  3, 33)  0.4194E-06 (  3,  2, 31)  0.2358E-07 (  4,  2, 31)

 NO OUTPUT CONTROL FOR STRESS PERIOD    1   TIME STEP  11


                                          ================================================
                                                         FROM TIME =  0.11000     TO   0.12000    

 
 SOLVING FOR HEAD 
 FLOW MODEL IS TRANSIENT
 FLOW MODEL CONTAINS CONSTANT-HEAD CELLS


 MAXIMUM STEPSIZE DURING WHICH ANY PARTICLE CANNOT MOVE MORE THAN ONE CELL
 =  1.126    (WHEN MIN. R.F.=1)  AT K=   3, I=   2, J=  30

 MAXIMUM STEPSIZE WHICH MEETS STABILITY CRITERION OF THE ADVECTION TERM
 (FOR PURE FINITE-DIFFERENCE OPTION, MIXELM=0) 
 = 0.8917    (WHEN MIN. R.F.=1)  AT K=   3, I=   2, J=  31


 TOTAL NUMBER OF POINT SOURCES/SINKS PRESENT IN THE FLOW MODEL =   240

 MAXIMUM STEPSIZE WHICH MEETS STABILITY CRITERION OF THE SINK & SOURCE TERM
 = 0.1000E+31(WHEN MIN. R.F.=1)  AT K=   0, I=   0, J=   0

 MAXIMUM STEPSIZE WHICH MEETS STABILITY CRITERION OF THE DISPERSION TERM
 = 0.4825E-01(WHEN MIN. R.F.=1)  AT K=   3, I=   2, J=  30


     1 CALLS TO GCG PACKAGE FOR TRANSPORT TIME STEP   1 IN FLOW TIME STEP  12 STRESS PERIOD   1
     5 TOTAL ITERATIONS
  MAXIMUM CONCENTRATION CHANGES FOR EACH ITERATION:
  MAX. CHANGE LAYER,ROW,COL MAX. CHANGE LAYER,ROW,COL MAX. CHANGE LAYER,ROW,COL MAX. CHANGE LAYER,ROW,COL MAX. CHANGE LAYER,ROW,COL
 ------------------------------------------------------------------------------------------------------------------------------------
   0.3796E-02 (  2,  3, 41)  0.1239E-03 (  3,  3, 35)  0.5348E-05 (  4,  3, 33)  0.4129E-06 (  3,  2, 31)  0.2325E-07 (  4,  2, 31)

 NO OUTPUT CONTROL FOR STRESS PERIOD    1   TIME STEP  12


                                          ================================================
                                                         FROM TIME =  0.12000     TO   0.13000    

 
 SOLVING FOR HEAD 
 FLOW MODEL IS TRANSIENT
 FLOW MODEL CONTAINS CONSTANT-HEAD CELLS


 MAXIMUM STEPSIZE DURING WHICH ANY PARTICLE CANNOT MOVE MORE THAN ONE CELL
 =  1.126    (WHEN MIN. R.F.=1)  AT K=   3, I=   2, J=  30

 MAXIMUM STEPSIZE WHICH MEETS STABILITY CRITERION OF THE ADVECTION TERM
 (FOR PURE FINITE-DIFFERENCE OPTION, MIXELM=0) 
 = 0.8918    (WHEN MIN. R.F.=1)  AT K=   3, I=   2, J=  31


 TOTAL NUMBER OF POINT SOURCES/SINKS PRESENT IN THE FLOW MODEL =   240

 MAXIMUM STEPSIZE WHICH MEETS STABILITY CRITERION OF THE SINK & SOURCE TERM
 = 0.1000E+31(WHEN MIN. R.F.=1)  AT K=   0, I=   0, J=   0

 MAXIMUM STEPSIZE WHICH MEETS STABILITY CRITERION OF THE DISPERSION TERM
 = 0.4825E-01(WHEN MIN. R.F.=1)  AT K=   3, I=   2, J=  30


     1 CALLS TO GCG PACKAGE FOR TRANSPORT TIME STEP   1 IN FLOW TIME STEP  13 STRESS PERIOD   1
     5 TOTAL ITERATIONS
  MAXIMUM CONCENTRATION CHANGES FOR EACH ITERATION:
  MAX. CHANGE LAYER,ROW,COL MAX. CHANGE LAYER,ROW,COL MAX. CHANGE LAYER,ROW,COL MAX. CHANGE LAYER,ROW,COL MAX. CHANGE LAYER,ROW,COL
 ------------------------------------------------------------------------------------------------------------------------------------
   0.3728E-02 (  2,  3, 41)  0.1229E-03 (  3,  3, 35)  0.5256E-05 (  4,  3, 33)  0.4070E-06 (  3,  2, 31)  0.2295E-07 (  4,  2, 31)

 NO OUTPUT CONTROL FOR STRESS PERIOD    1   TIME STEP  13


                                          ================================================
                                                         FROM TIME =  0.13000     TO   0.14000    

 
 SOLVING FOR HEAD 
 FLOW MODEL IS TRANSIENT
 FLOW MODEL CONTAINS CONSTANT-HEAD CELLS


 MAXIMUM STEPSIZE DURING WHICH ANY PARTICLE CANNOT MOVE MORE THAN ONE CELL
 =  1.126    (WHEN MIN. R.F.=1)  AT K=   3, I=   2, J=  30

 MAXIMUM STEPSIZE WHICH MEETS STABILITY CRITERION OF THE ADVECTION TERM
 (FOR PURE FINITE-DIFFERENCE OPTION, MIXELM=0) 
 = 0.8920    (WHEN MIN. R.F.=1)  AT K=   3, I=   2, J=  31


 TOTAL NUMBER OF POINT SOURCES/SINKS PRESENT IN THE FLOW MODEL =   240

 MAXIMUM STEPSIZE WHICH MEETS STABILITY CRITERION OF THE SINK & SOURCE TERM
 = 0.1000E+31(WHEN MIN. R.F.=1)  AT K=   0, I=   0, J=   0

 MAXIMUM STEPSIZE WHICH MEETS STABILITY CRITERION OF THE DISPERSION TERM
 = 0.4824E-01(WHEN MIN. R.F.=1)  AT K=   3, I=   2, J=  30


     1 CALLS TO GCG PACKAGE FOR TRANSPORT TIME STEP   1 IN FLOW TIME STEP  14 STRESS PERIOD   1
     5 TOTAL ITERATIONS
  MAXIMUM CONCENTRATION CHANGES FOR EACH ITERATION:
  MAX. CHANGE LAYER,ROW,COL MAX. CHANGE LAYER,ROW,COL MAX. CHANGE LAYER,ROW,COL MAX. CHANGE LAYER,ROW,COL MAX. CHANGE LAYER,ROW,COL
 ------------------------------------------------------------------------------------------------------------------------------------
   0.3663E-02 (  2,  3, 42)  0.1219E-03 (  3,  3, 35)  0.5166E-05 (  4,  3, 33)  0.4015E-06 (  3,  2, 31)  0.2268E-07 (  4,  2, 31)

 NO OUTPUT CONTROL FOR STRESS PERIOD    1   TIME STEP  14


                                          ================================================
                                                         FROM TIME =  0.14000     TO   0.15000    

 
 SOLVING FOR HEAD 
 FLOW MODEL IS TRANSIENT
 FLOW MODEL CONTAINS CONSTANT-HEAD CELLS


 MAXIMUM STEPSIZE DURING WHICH ANY PARTICLE CANNOT MOVE MORE THAN ONE CELL
 =  1.127    (WHEN MIN. R.F.=1)  AT K=   3, I=   2, J=  30

 MAXIMUM STEPSIZE WHICH MEETS STABILITY CRITERION OF THE ADVECTION TERM
 (FOR PURE FINITE-DIFFERENCE OPTION, MIXELM=0) 
 = 0.8921    (WHEN MIN. R.F.=1)  AT K=   3, I=   2, J=  31


 TOTAL NUMBER OF POINT SOURCES/SINKS PRESENT IN THE FLOW MODEL =   240

 MAXIMUM STEPSIZE WHICH MEETS STABILITY CRITERION OF THE SINK & SOURCE TERM
 = 0.1000E+31(WHEN MIN. R.F.=1)  AT K=   0, I=   0, J=   0

 MAXIMUM STEPSIZE WHICH MEETS STABILITY CRITERION OF THE DISPERSION TERM
 = 0.4824E-01(WHEN MIN. R.F.=1)  AT K=   3, I=   2, J=  30


     1 CALLS TO GCG PACKAGE FOR TRANSPORT TIME STEP   1 IN FLOW TIME STEP  15 STRESS PERIOD   1
     5 TOTAL ITERATIONS
  MAXIMUM CONCENTRATION CHANGES FOR EACH ITERATION:
  MAX. CHANGE LAYER,ROW,COL MAX. CHANGE LAYER,ROW,COL MAX. CHANGE LAYER,ROW,COL MAX. CHANGE LAYER,ROW,COL MAX. CHANGE LAYER,ROW,COL
 ------------------------------------------------------------------------------------------------------------------------------------
   0.3602E-02 (  2,  3, 42)  0.1209E-03 (  3,  3, 35)  0.5080E-05 (  4,  3, 33)  0.3965E-06 (  3,  2, 31)  0.2243E-07 (  4,  2, 31)

 NO OUTPUT CONTROL FOR STRESS PERIOD    1   TIME STEP  15


                                          ================================================
                                                         FROM TIME =  0.15000     TO   0.16000    

 
 SOLVING FOR HEAD 
 FLOW MODEL IS TRANSIENT
 FLOW MODEL CONTAINS CONSTANT-HEAD CELLS


 MAXIMUM STEPSIZE DURING WHICH ANY PARTICLE CANNOT MOVE MORE THAN ONE CELL
 =  1.127    (WHEN MIN. R.F.=1)  AT K=   3, I=   2, J=  30

 MAXIMUM STEPSIZE WHICH MEETS STABILITY CRITERION OF THE ADVECTION TERM
 (FOR PURE FINITE-DIFFERENCE OPTION, MIXELM=0) 
 = 0.8923    (WHEN MIN. R.F.=1)  AT K=   3, I=   2, J=  31


 TOTAL NUMBER OF POINT SOURCES/SINKS PRESENT IN THE FLOW MODEL =   240

 MAXIMUM STEPSIZE WHICH MEETS STABILITY CRITERION OF THE SINK & SOURCE TERM
 = 0.1000E+31(WHEN MIN. R.F.=1)  AT K=   0, I=   0, J=   0

 MAXIMUM STEPSIZE WHICH MEETS STABILITY CRITERION OF THE DISPERSION TERM
 = 0.4824E-01(WHEN MIN. R.F.=1)  AT K=   3, I=   2, J=  30


     1 CALLS TO GCG PACKAGE FOR TRANSPORT TIME STEP   1 IN FLOW TIME STEP  16 STRESS PERIOD   1
     5 TOTAL ITERATIONS
  MAXIMUM CONCENTRATION CHANGES FOR EACH ITERATION:
  MAX. CHANGE LAYER,ROW,COL MAX. CHANGE LAYER,ROW,COL MAX. CHANGE LAYER,ROW,COL MAX. CHANGE LAYER,ROW,COL MAX. CHANGE LAYER,ROW,COL
 ------------------------------------------------------------------------------------------------------------------------------------
   0.3543E-02 (  2,  3, 42)  0.1198E-03 (  3,  3, 35)  0.4996E-05 (  4,  3, 33)  0.3918E-06 (  3,  2, 31)  0.2219E-07 (  4,  2, 31)

 NO OUTPUT CONTROL FOR STRESS PERIOD    1   TIME STEP  16


                                          ================================================
                                                         FROM TIME =  0.16000     TO   0.17000    

 
 SOLVING FOR HEAD 
 FLOW MODEL IS TRANSIENT
 FLOW MODEL CONTAINS CONSTANT-HEAD CELLS


 MAXIMUM STEPSIZE DURING WHICH ANY PARTICLE CANNOT MOVE MORE THAN ONE CELL
 =  1.127    (WHEN MIN. R.F.=1)  AT K=   3, I=   2, J=  30

 MAXIMUM STEPSIZE WHICH MEETS STABILITY CRITERION OF THE ADVECTION TERM
 (FOR PURE FINITE-DIFFERENCE OPTION, MIXELM=0) 
 = 0.8924    (WHEN MIN. R.F.=1)  AT K=   3, I=   2, J=  31


 TOTAL NUMBER OF POINT SOURCES/SINKS PRESENT IN THE FLOW MODEL =   240

 MAXIMUM STEPSIZE WHICH MEETS STABILITY CRITERION OF THE SINK & SOURCE TERM
 = 0.1000E+31(WHEN MIN. R.F.=1)  AT K=   0, I=   0, J=   0

 MAXIMUM STEPSIZE WHICH MEETS STABILITY CRITERION OF THE DISPERSION TERM
 = 0.4824E-01(WHEN MIN. R.F.=1)  AT K=   3, I=   2, J=  30


     1 CALLS TO GCG PACKAGE FOR TRANSPORT TIME STEP   1 IN FLOW TIME STEP  17 STRESS PERIOD   1
     5 TOTAL ITERATIONS
  MAXIMUM CONCENTRATION CHANGES FOR EACH ITERATION:
  MAX. CHANGE LAYER,ROW,COL MAX. CHANGE LAYER,ROW,COL MAX. CHANGE LAYER,ROW,COL MAX. CHANGE LAYER,ROW,COL MAX. CHANGE LAYER,ROW,COL
 ------------------------------------------------------------------------------------------------------------------------------------
   0.3486E-02 (  2,  1, 42)  0.1188E-03 (  3,  3, 35)  0.4914E-05 (  4,  3, 33)  0.3873E-06 (  3,  2, 31)  0.2197E-07 (  4,  2, 31)

 NO OUTPUT CONTROL FOR STRESS PERIOD    1   TIME STEP  17


                                          ================================================
                                                         FROM TIME =  0.17000     TO   0.18000    

 
 SOLVING FOR HEAD 
 FLOW MODEL IS TRANSIENT
 FLOW MODEL CONTAINS CONSTANT-HEAD CELLS


 MAXIMUM STEPSIZE DURING WHICH ANY PARTICLE CANNOT MOVE MORE THAN ONE CELL
 =  1.127    (WHEN MIN. R.F.=1)  AT K=   3, I=   2, J=  30

 MAXIMUM STEPSIZE WHICH MEETS STABILITY CRITERION OF THE ADVECTION TERM
 (FOR PURE FINITE-DIFFERENCE OPTION, MIXELM=0) 
 = 0.8926    (WHEN MIN. R.F.=1)  AT K=   3, I=   2, J=  31


 TOTAL NUMBER OF POINT SOURCES/SINKS PRESENT IN THE FLOW MODEL =   240

 MAXIMUM STEPSIZE WHICH MEETS STABILITY CRITERION OF THE SINK & SOURCE TERM
 = 0.1000E+31(WHEN MIN. R.F.=1)  AT K=   0, I=   0, J=   0

 MAXIMUM STEPSIZE WHICH MEETS STABILITY CRITERION OF THE DISPERSION TERM
 = 0.4825E-01(WHEN MIN. R.F.=1)  AT K=   3, I=   2, J=  30


     1 CALLS TO GCG PACKAGE FOR TRANSPORT TIME STEP   1 IN FLOW TIME STEP  18 STRESS PERIOD   1
     5 TOTAL ITERATIONS
  MAXIMUM CONCENTRATION CHANGES FOR EACH ITERATION:
  MAX. CHANGE LAYER,ROW,COL MAX. CHANGE LAYER,ROW,COL MAX. CHANGE LAYER,ROW,COL MAX. CHANGE LAYER,ROW,COL MAX. CHANGE LAYER,ROW,COL
 ------------------------------------------------------------------------------------------------------------------------------------
   0.3433E-02 (  2,  1, 42)  0.1178E-03 (  3,  3, 35)  0.4836E-05 (  4,  3, 33)  0.3830E-06 (  3,  2, 31)  0.2176E-07 (  4,  2, 31)

 NO OUTPUT CONTROL FOR STRESS PERIOD    1   TIME STEP  18


                                          ================================================
                                                         FROM TIME =  0.18000     TO   0.19000    

 
 SOLVING FOR HEAD 
 FLOW MODEL IS TRANSIENT
 FLOW MODEL CONTAINS CONSTANT-HEAD CELLS


 MAXIMUM STEPSIZE DURING WHICH ANY PARTICLE CANNOT MOVE MORE THAN ONE CELL
 =  1.127    (WHEN MIN. R.F.=1)  AT K=   3, I=   2, J=  30

 MAXIMUM STEPSIZE WHICH MEETS STABILITY CRITERION OF THE ADVECTION TERM
 (FOR PURE FINITE-DIFFERENCE OPTION, MIXELM=0) 
 = 0.8928    (WHEN MIN. R.F.=1)  AT K=   3, I=   2, J=  31


 TOTAL NUMBER OF POINT SOURCES/SINKS PRESENT IN THE FLOW MODEL =   240

 MAXIMUM STEPSIZE WHICH MEETS STABILITY CRITERION OF THE SINK & SOURCE TERM
 = 0.1000E+31(WHEN MIN. R.F.=1)  AT K=   0, I=   0, J=   0

 MAXIMUM STEPSIZE WHICH MEETS STABILITY CRITERION OF THE DISPERSION TERM
 = 0.4825E-01(WHEN MIN. R.F.=1)  AT K=   3, I=   2, J=  30


     1 CALLS TO GCG PACKAGE FOR TRANSPORT TIME STEP   1 IN FLOW TIME STEP  19 STRESS PERIOD   1
     5 TOTAL ITERATIONS
  MAXIMUM CONCENTRATION CHANGES FOR EACH ITERATION:
  MAX. CHANGE LAYER,ROW,COL MAX. CHANGE LAYER,ROW,COL MAX. CHANGE LAYER,ROW,COL MAX. CHANGE LAYER,ROW,COL MAX. CHANGE LAYER,ROW,COL
 ------------------------------------------------------------------------------------------------------------------------------------
   0.3381E-02 (  2,  1, 42)  0.1167E-03 (  3,  3, 35)  0.4759E-05 (  4,  3, 33)  0.3788E-06 (  3,  2, 31)  0.2155E-07 (  4,  2, 31)

 NO OUTPUT CONTROL FOR STRESS PERIOD    1   TIME STEP  19


                                          ================================================
                                                         FROM TIME =  0.19000     TO   0.20000    

 
 SOLVING FOR HEAD 
 FLOW MODEL IS TRANSIENT
 FLOW MODEL CONTAINS CONSTANT-HEAD CELLS


 MAXIMUM STEPSIZE DURING WHICH ANY PARTICLE CANNOT MOVE MORE THAN ONE CELL
 =  1.127    (WHEN MIN. R.F.=1)  AT K=   3, I=   2, J=  30

 MAXIMUM STEPSIZE WHICH MEETS STABILITY CRITERION OF THE ADVECTION TERM
 (FOR PURE FINITE-DIFFERENCE OPTION, MIXELM=0) 
 = 0.8931    (WHEN MIN. R.F.=1)  AT K=   3, I=   2, J=  31


 TOTAL NUMBER OF POINT SOURCES/SINKS PRESENT IN THE FLOW MODEL =   240

 MAXIMUM STEPSIZE WHICH MEETS STABILITY CRITERION OF THE SINK & SOURCE TERM
 = 0.1000E+31(WHEN MIN. R.F.=1)  AT K=   0, I=   0, J=   0

 MAXIMUM STEPSIZE WHICH MEETS STABILITY CRITERION OF THE DISPERSION TERM
 = 0.4825E-01(WHEN MIN. R.F.=1)  AT K=   3, I=   2, J=  30


     1 CALLS TO GCG PACKAGE FOR TRANSPORT TIME STEP   1 IN FLOW TIME STEP  20 STRESS PERIOD   1
     5 TOTAL ITERATIONS
  MAXIMUM CONCENTRATION CHANGES FOR EACH ITERATION:
  MAX. CHANGE LAYER,ROW,COL MAX. CHANGE LAYER,ROW,COL MAX. CHANGE LAYER,ROW,COL MAX. CHANGE LAYER,ROW,COL MAX. CHANGE LAYER,ROW,COL
 ------------------------------------------------------------------------------------------------------------------------------------
   0.3329E-02 (  2,  1, 42)  0.1157E-03 (  3,  3, 35)  0.4686E-05 (  4,  3, 33)  0.3748E-06 (  3,  2, 31)  0.2135E-07 (  4,  2, 31)

 NO OUTPUT CONTROL FOR STRESS PERIOD    1   TIME STEP  20


                                          ================================================
                                                         FROM TIME =  0.20000     TO   0.21000    

 
 SOLVING FOR HEAD 
 FLOW MODEL IS TRANSIENT
 FLOW MODEL CONTAINS CONSTANT-HEAD CELLS


 MAXIMUM STEPSIZE DURING WHICH ANY PARTICLE CANNOT MOVE MORE THAN ONE CELL
 =  1.128    (WHEN MIN. R.F.=1)  AT K=   3, I=   2, J=  30

 MAXIMUM STEPSIZE WHICH MEETS STABILITY CRITERION OF THE ADVECTION TERM
 (FOR PURE FINITE-DIFFERENCE OPTION, MIXELM=0) 
 = 0.8933    (WHEN MIN. R.F.=1)  AT K=   3, I=   2, J=  31


 TOTAL NUMBER OF POINT SOURCES/SINKS PRESENT IN THE FLOW MODEL =   240

 MAXIMUM STEPSIZE WHICH MEETS STABILITY CRITERION OF THE SINK & SOURCE TERM
 = 0.1000E+31(WHEN MIN. R.F.=1)  AT K=   0, I=   0, J=   0

 MAXIMUM STEPSIZE WHICH MEETS STABILITY CRITERION OF THE DISPERSION TERM
 = 0.4826E-01(WHEN MIN. R.F.=1)  AT K=   3, I=   2, J=  30


     1 CALLS TO GCG PACKAGE FOR TRANSPORT TIME STEP   1 IN FLOW TIME STEP  21 STRESS PERIOD   1
     5 TOTAL ITERATIONS
  MAXIMUM CONCENTRATION CHANGES FOR EACH ITERATION:
  MAX. CHANGE LAYER,ROW,COL MAX. CHANGE LAYER,ROW,COL MAX. CHANGE LAYER,ROW,COL MAX. CHANGE LAYER,ROW,COL MAX. CHANGE LAYER,ROW,COL
 ------------------------------------------------------------------------------------------------------------------------------------
   0.3280E-02 (  2,  1, 43)  0.1146E-03 (  3,  3, 35)  0.4614E-05 (  4,  3, 33)  0.3708E-06 (  3,  2, 31)  0.2115E-07 (  4,  2, 31)

 NO OUTPUT CONTROL FOR STRESS PERIOD    1   TIME STEP  21


                                          ================================================
                                                         FROM TIME =  0.21000     TO   0.22000    

 
 SOLVING FOR HEAD 
 FLOW MODEL IS TRANSIENT
 FLOW MODEL CONTAINS CONSTANT-HEAD CELLS


 MAXIMUM STEPSIZE DURING WHICH ANY PARTICLE CANNOT MOVE MORE THAN ONE CELL
 =  1.128    (WHEN MIN. R.F.=1)  AT K=   3, I=   2, J=  30

 MAXIMUM STEPSIZE WHICH MEETS STABILITY CRITERION OF THE ADVECTION TERM
 (FOR PURE FINITE-DIFFERENCE OPTION, MIXELM=0) 
 = 0.8935    (WHEN MIN. R.F.=1)  AT K=   3, I=   2, J=  31


 TOTAL NUMBER OF POINT SOURCES/SINKS PRESENT IN THE FLOW MODEL =   240

 MAXIMUM STEPSIZE WHICH MEETS STABILITY CRITERION OF THE SINK & SOURCE TERM
 = 0.1000E+31(WHEN MIN. R.F.=1)  AT K=   0, I=   0, J=   0

 MAXIMUM STEPSIZE WHICH MEETS STABILITY CRITERION OF THE DISPERSION TERM
 = 0.4826E-01(WHEN MIN. R.F.=1)  AT K=   3, I=   2, J=  30


     1 CALLS TO GCG PACKAGE FOR TRANSPORT TIME STEP   1 IN FLOW TIME STEP  22 STRESS PERIOD   1
     5 TOTAL ITERATIONS
  MAXIMUM CONCENTRATION CHANGES FOR EACH ITERATION:
  MAX. CHANGE LAYER,ROW,COL MAX. CHANGE LAYER,ROW,COL MAX. CHANGE LAYER,ROW,COL MAX. CHANGE LAYER,ROW,COL MAX. CHANGE LAYER,ROW,COL
 ------------------------------------------------------------------------------------------------------------------------------------
   0.3233E-02 (  2,  1, 43)  0.1136E-03 (  3,  3, 35)  0.4545E-05 (  4,  3, 33)  0.3669E-06 (  3,  2, 31)  0.2095E-07 (  4,  2, 31)

 NO OUTPUT CONTROL FOR STRESS PERIOD    1   TIME STEP  22


                                          ================================================
                                                         FROM TIME =  0.22000     TO   0.23000    

 
 SOLVING FOR HEAD 
 FLOW MODEL IS TRANSIENT
 FLOW MODEL CONTAINS CONSTANT-HEAD CELLS


 MAXIMUM STEPSIZE DURING WHICH ANY PARTICLE CANNOT MOVE MORE THAN ONE CELL
 =  1.128    (WHEN MIN. R.F.=1)  AT K=   3, I=   2, J=  30

 MAXIMUM STEPSIZE WHICH MEETS STABILITY CRITERION OF THE ADVECTION TERM
 (FOR PURE FINITE-DIFFERENCE OPTION, MIXELM=0) 
 = 0.8938    (WHEN MIN. R.F.=1)  AT K=   3, I=   2, J=  31


 TOTAL NUMBER OF POINT SOURCES/SINKS PRESENT IN THE FLOW MODEL =   240

 MAXIMUM STEPSIZE WHICH MEETS STABILITY CRITERION OF THE SINK & SOURCE TERM
 = 0.1000E+31(WHEN MIN. R.F.=1)  AT K=   0, I=   0, J=   0

 MAXIMUM STEPSIZE WHICH MEETS STABILITY CRITERION OF THE DISPERSION TERM
 = 0.4827E-01(WHEN MIN. R.F.=1)  AT K=   3, I=   2, J=  30


     1 CALLS TO GCG PACKAGE FOR TRANSPORT TIME STEP   1 IN FLOW TIME STEP  23 STRESS PERIOD   1
     5 TOTAL ITERATIONS
  MAXIMUM CONCENTRATION CHANGES FOR EACH ITERATION:
  MAX. CHANGE LAYER,ROW,COL MAX. CHANGE LAYER,ROW,COL MAX. CHANGE LAYER,ROW,COL MAX. CHANGE LAYER,ROW,COL MAX. CHANGE LAYER,ROW,COL
 ------------------------------------------------------------------------------------------------------------------------------------
   0.3186E-02 (  2,  1, 43)  0.1125E-03 (  3,  3, 35)  0.4478E-05 (  4,  3, 33)  0.3631E-06 (  3,  2, 31)  0.2076E-07 (  4,  2, 31)

 NO OUTPUT CONTROL FOR STRESS PERIOD    1   TIME STEP  23


                                          ================================================
                                                         FROM TIME =  0.23000     TO   0.24000    

 
 SOLVING FOR HEAD 
 FLOW MODEL IS TRANSIENT
 FLOW MODEL CONTAINS CONSTANT-HEAD CELLS


 MAXIMUM STEPSIZE DURING WHICH ANY PARTICLE CANNOT MOVE MORE THAN ONE CELL
 =  1.128    (WHEN MIN. R.F.=1)  AT K=   3, I=   2, J=  30

 MAXIMUM STEPSIZE WHICH MEETS STABILITY CRITERION OF THE ADVECTION TERM
 (FOR PURE FINITE-DIFFERENCE OPTION, MIXELM=0) 
 = 0.8940    (WHEN MIN. R.F.=1)  AT K=   3, I=   2, J=  31


 TOTAL NUMBER OF POINT SOURCES/SINKS PRESENT IN THE FLOW MODEL =   240

 MAXIMUM STEPSIZE WHICH MEETS STABILITY CRITERION OF THE SINK & SOURCE TERM
 = 0.1000E+31(WHEN MIN. R.F.=1)  AT K=   0, I=   0, J=   0

 MAXIMUM STEPSIZE WHICH MEETS STABILITY CRITERION OF THE DISPERSION TERM
 = 0.4828E-01(WHEN MIN. R.F.=1)  AT K=   3, I=   2, J=  30


     1 CALLS TO GCG PACKAGE FOR TRANSPORT TIME STEP   1 IN FLOW TIME STEP  24 STRESS PERIOD   1
     5 TOTAL ITERATIONS
  MAXIMUM CONCENTRATION CHANGES FOR EACH ITERATION:
  MAX. CHANGE LAYER,ROW,COL MAX. CHANGE LAYER,ROW,COL MAX. CHANGE LAYER,ROW,COL MAX. CHANGE LAYER,ROW,COL MAX. CHANGE LAYER,ROW,COL
 ------------------------------------------------------------------------------------------------------------------------------------
   0.3141E-02 (  2,  1, 43)  0.1115E-03 (  3,  3, 35)  0.4413E-05 (  4,  3, 33)  0.3594E-06 (  3,  2, 31)  0.2056E-07 (  4,  2, 31)

 NO OUTPUT CONTROL FOR STRESS PERIOD    1   TIME STEP  24


                                          ================================================
                                                         FROM TIME =  0.24000     TO   0.25000    

 
 SOLVING FOR HEAD 
 FLOW MODEL IS TRANSIENT
 FLOW MODEL CONTAINS CONSTANT-HEAD CELLS


 MAXIMUM STEPSIZE DURING WHICH ANY PARTICLE CANNOT MOVE MORE THAN ONE CELL
 =  1.129    (WHEN MIN. R.F.=1)  AT K=   3, I=   2, J=  30

 MAXIMUM STEPSIZE WHICH MEETS STABILITY CRITERION OF THE ADVECTION TERM
 (FOR PURE FINITE-DIFFERENCE OPTION, MIXELM=0) 
 = 0.8943    (WHEN MIN. R.F.=1)  AT K=   3, I=   2, J=  31


 TOTAL NUMBER OF POINT SOURCES/SINKS PRESENT IN THE FLOW MODEL =   240

 MAXIMUM STEPSIZE WHICH MEETS STABILITY CRITERION OF THE SINK & SOURCE TERM
 = 0.1000E+31(WHEN MIN. R.F.=1)  AT K=   0, I=   0, J=   0

 MAXIMUM STEPSIZE WHICH MEETS STABILITY CRITERION OF THE DISPERSION TERM
 = 0.4829E-01(WHEN MIN. R.F.=1)  AT K=   3, I=   2, J=  30


     1 CALLS TO GCG PACKAGE FOR TRANSPORT TIME STEP   1 IN FLOW TIME STEP  25 STRESS PERIOD   1
     5 TOTAL ITERATIONS
  MAXIMUM CONCENTRATION CHANGES FOR EACH ITERATION:
  MAX. CHANGE LAYER,ROW,COL MAX. CHANGE LAYER,ROW,COL MAX. CHANGE LAYER,ROW,COL MAX. CHANGE LAYER,ROW,COL MAX. CHANGE LAYER,ROW,COL
 ------------------------------------------------------------------------------------------------------------------------------------
   0.3097E-02 (  2,  1, 43)  0.1104E-03 (  3,  3, 35)  0.4350E-05 (  4,  3, 33)  0.3557E-06 (  3,  2, 31)  0.2037E-07 (  4,  2, 31)

 NO OUTPUT CONTROL FOR STRESS PERIOD    1   TIME STEP  25


                                          ================================================
                                                         FROM TIME =  0.25000     TO   0.26000    

 
 SOLVING FOR HEAD 
 FLOW MODEL IS TRANSIENT
 FLOW MODEL CONTAINS CONSTANT-HEAD CELLS


 MAXIMUM STEPSIZE DURING WHICH ANY PARTICLE CANNOT MOVE MORE THAN ONE CELL
 =  1.129    (WHEN MIN. R.F.=1)  AT K=   3, I=   2, J=  30

 MAXIMUM STEPSIZE WHICH MEETS STABILITY CRITERION OF THE ADVECTION TERM
 (FOR PURE FINITE-DIFFERENCE OPTION, MIXELM=0) 
 = 0.8946    (WHEN MIN. R.F.=1)  AT K=   3, I=   2, J=  31


 TOTAL NUMBER OF POINT SOURCES/SINKS PRESENT IN THE FLOW MODEL =   240

 MAXIMUM STEPSIZE WHICH MEETS STABILITY CRITERION OF THE SINK & SOURCE TERM
 = 0.1000E+31(WHEN MIN. R.F.=1)  AT K=   0, I=   0, J=   0

 MAXIMUM STEPSIZE WHICH MEETS STABILITY CRITERION OF THE DISPERSION TERM
 = 0.4830E-01(WHEN MIN. R.F.=1)  AT K=   3, I=   2, J=  30


     1 CALLS TO GCG PACKAGE FOR TRANSPORT TIME STEP   1 IN FLOW TIME STEP  26 STRESS PERIOD   1
     5 TOTAL ITERATIONS
  MAXIMUM CONCENTRATION CHANGES FOR EACH ITERATION:
  MAX. CHANGE LAYER,ROW,COL MAX. CHANGE LAYER,ROW,COL MAX. CHANGE LAYER,ROW,COL MAX. CHANGE LAYER,ROW,COL MAX. CHANGE LAYER,ROW,COL
 ------------------------------------------------------------------------------------------------------------------------------------
   0.3053E-02 (  2,  1, 43)  0.1094E-03 (  3,  3, 35)  0.4288E-05 (  4,  3, 33)  0.3521E-06 (  3,  2, 31)  0.2018E-07 (  4,  2, 31)

 NO OUTPUT CONTROL FOR STRESS PERIOD    1   TIME STEP  26


                                          ================================================
                                                         FROM TIME =  0.26000     TO   0.27000    

 
 SOLVING FOR HEAD 
 FLOW MODEL IS TRANSIENT
 FLOW MODEL CONTAINS CONSTANT-HEAD CELLS


 MAXIMUM STEPSIZE DURING WHICH ANY PARTICLE CANNOT MOVE MORE THAN ONE CELL
 =  1.129    (WHEN MIN. R.F.=1)  AT K=   3, I=   2, J=  30

 MAXIMUM STEPSIZE WHICH MEETS STABILITY CRITERION OF THE ADVECTION TERM
 (FOR PURE FINITE-DIFFERENCE OPTION, MIXELM=0) 
 = 0.8949    (WHEN MIN. R.F.=1)  AT K=   3, I=   2, J=  31


 TOTAL NUMBER OF POINT SOURCES/SINKS PRESENT IN THE FLOW MODEL =   240

 MAXIMUM STEPSIZE WHICH MEETS STABILITY CRITERION OF THE SINK & SOURCE TERM
 = 0.1000E+31(WHEN MIN. R.F.=1)  AT K=   0, I=   0, J=   0

 MAXIMUM STEPSIZE WHICH MEETS STABILITY CRITERION OF THE DISPERSION TERM
 = 0.4830E-01(WHEN MIN. R.F.=1)  AT K=   3, I=   2, J=  30


     1 CALLS TO GCG PACKAGE FOR TRANSPORT TIME STEP   1 IN FLOW TIME STEP  27 STRESS PERIOD   1
     5 TOTAL ITERATIONS
  MAXIMUM CONCENTRATION CHANGES FOR EACH ITERATION:
  MAX. CHANGE LAYER,ROW,COL MAX. CHANGE LAYER,ROW,COL MAX. CHANGE LAYER,ROW,COL MAX. CHANGE LAYER,ROW,COL MAX. CHANGE LAYER,ROW,COL
 ------------------------------------------------------------------------------------------------------------------------------------
   0.3010E-02 (  2,  1, 44)  0.1084E-03 (  3,  3, 35)  0.4229E-05 (  4,  3, 33)  0.3485E-06 (  3,  2, 31)  0.1999E-07 (  4,  2, 31)

 NO OUTPUT CONTROL FOR STRESS PERIOD    1   TIME STEP  27


                                          ================================================
                                                         FROM TIME =  0.27000     TO   0.28000    

 
 SOLVING FOR HEAD 
 FLOW MODEL IS TRANSIENT
 FLOW MODEL CONTAINS CONSTANT-HEAD CELLS


 MAXIMUM STEPSIZE DURING WHICH ANY PARTICLE CANNOT MOVE MORE THAN ONE CELL
 =  1.130    (WHEN MIN. R.F.=1)  AT K=   3, I=   2, J=  30

 MAXIMUM STEPSIZE WHICH MEETS STABILITY CRITERION OF THE ADVECTION TERM
 (FOR PURE FINITE-DIFFERENCE OPTION, MIXELM=0) 
 = 0.8951    (WHEN MIN. R.F.=1)  AT K=   3, I=   2, J=  31


 TOTAL NUMBER OF POINT SOURCES/SINKS PRESENT IN THE FLOW MODEL =   240

 MAXIMUM STEPSIZE WHICH MEETS STABILITY CRITERION OF THE SINK & SOURCE TERM
 = 0.1000E+31(WHEN MIN. R.F.=1)  AT K=   0, I=   0, J=   0

 MAXIMUM STEPSIZE WHICH MEETS STABILITY CRITERION OF THE DISPERSION TERM
 = 0.4831E-01(WHEN MIN. R.F.=1)  AT K=   3, I=   2, J=  30


     1 CALLS TO GCG PACKAGE FOR TRANSPORT TIME STEP   1 IN FLOW TIME STEP  28 STRESS PERIOD   1
     5 TOTAL ITERATIONS
  MAXIMUM CONCENTRATION CHANGES FOR EACH ITERATION:
  MAX. CHANGE LAYER,ROW,COL MAX. CHANGE LAYER,ROW,COL MAX. CHANGE LAYER,ROW,COL MAX. CHANGE LAYER,ROW,COL MAX. CHANGE LAYER,ROW,COL
 ------------------------------------------------------------------------------------------------------------------------------------
   0.2970E-02 (  2,  1, 44)  0.1073E-03 (  3,  3, 35)  0.4171E-05 (  4,  3, 33)  0.3449E-06 (  3,  2, 31)  0.1980E-07 (  4,  2, 31)

 NO OUTPUT CONTROL FOR STRESS PERIOD    1   TIME STEP  28


                                          ================================================
                                                         FROM TIME =  0.28000     TO   0.29000    

 
 SOLVING FOR HEAD 
 FLOW MODEL IS TRANSIENT
 FLOW MODEL CONTAINS CONSTANT-HEAD CELLS


 MAXIMUM STEPSIZE DURING WHICH ANY PARTICLE CANNOT MOVE MORE THAN ONE CELL
 =  1.130    (WHEN MIN. R.F.=1)  AT K=   3, I=   2, J=  30

 MAXIMUM STEPSIZE WHICH MEETS STABILITY CRITERION OF THE ADVECTION TERM
 (FOR PURE FINITE-DIFFERENCE OPTION, MIXELM=0) 
 = 0.8954    (WHEN MIN. R.F.=1)  AT K=   3, I=   2, J=  31


 TOTAL NUMBER OF POINT SOURCES/SINKS PRESENT IN THE FLOW MODEL =   240

 MAXIMUM STEPSIZE WHICH MEETS STABILITY CRITERION OF THE SINK & SOURCE TERM
 = 0.1000E+31(WHEN MIN. R.F.=1)  AT K=   0, I=   0, J=   0

 MAXIMUM STEPSIZE WHICH MEETS STABILITY CRITERION OF THE DISPERSION TERM
 = 0.4832E-01(WHEN MIN. R.F.=1)  AT K=   3, I=   2, J=  30


     1 CALLS TO GCG PACKAGE FOR TRANSPORT TIME STEP   1 IN FLOW TIME STEP  29 STRESS PERIOD   1
     5 TOTAL ITERATIONS
  MAXIMUM CONCENTRATION CHANGES FOR EACH ITERATION:
  MAX. CHANGE LAYER,ROW,COL MAX. CHANGE LAYER,ROW,COL MAX. CHANGE LAYER,ROW,COL MAX. CHANGE LAYER,ROW,COL MAX. CHANGE LAYER,ROW,COL
 ------------------------------------------------------------------------------------------------------------------------------------
   0.2931E-02 (  2,  1, 44)  0.1063E-03 (  3,  3, 35)  0.4114E-05 (  4,  3, 33)  0.3414E-06 (  3,  2, 31)  0.1962E-07 (  4,  2, 31)

 NO OUTPUT CONTROL FOR STRESS PERIOD    1   TIME STEP  29


                                          ================================================
                                                         FROM TIME =  0.29000     TO   0.30000    

 
 SOLVING FOR HEAD 
 FLOW MODEL IS TRANSIENT
 FLOW MODEL CONTAINS CONSTANT-HEAD CELLS


 MAXIMUM STEPSIZE DURING WHICH ANY PARTICLE CANNOT MOVE MORE THAN ONE CELL
 =  1.130    (WHEN MIN. R.F.=1)  AT K=   3, I=   2, J=  30

 MAXIMUM STEPSIZE WHICH MEETS STABILITY CRITERION OF THE ADVECTION TERM
 (FOR PURE FINITE-DIFFERENCE OPTION, MIXELM=0) 
 = 0.8957    (WHEN MIN. R.F.=1)  AT K=   3, I=   2, J=  31


 TOTAL NUMBER OF POINT SOURCES/SINKS PRESENT IN THE FLOW MODEL =   240

 MAXIMUM STEPSIZE WHICH MEETS STABILITY CRITERION OF THE SINK & SOURCE TERM
 = 0.1000E+31(WHEN MIN. R.F.=1)  AT K=   0, I=   0, J=   0

 MAXIMUM STEPSIZE WHICH MEETS STABILITY CRITERION OF THE DISPERSION TERM
 = 0.4833E-01(WHEN MIN. R.F.=1)  AT K=   3, I=   2, J=  30


     1 CALLS TO GCG PACKAGE FOR TRANSPORT TIME STEP   1 IN FLOW TIME STEP  30 STRESS PERIOD   1
     5 TOTAL ITERATIONS
  MAXIMUM CONCENTRATION CHANGES FOR EACH ITERATION:
  MAX. CHANGE LAYER,ROW,COL MAX. CHANGE LAYER,ROW,COL MAX. CHANGE LAYER,ROW,COL MAX. CHANGE LAYER,ROW,COL MAX. CHANGE LAYER,ROW,COL
 ------------------------------------------------------------------------------------------------------------------------------------
   0.2893E-02 (  2,  1, 44)  0.1053E-03 (  3,  3, 35)  0.4059E-05 (  4,  3, 33)  0.3379E-06 (  3,  2, 31)  0.1943E-07 (  4,  2, 31)

 NO OUTPUT CONTROL FOR STRESS PERIOD    1   TIME STEP  30


                                          ================================================
                                                         FROM TIME =  0.30000     TO   0.31000    

 
 SOLVING FOR HEAD 
 FLOW MODEL IS TRANSIENT
 FLOW MODEL CONTAINS CONSTANT-HEAD CELLS


 MAXIMUM STEPSIZE DURING WHICH ANY PARTICLE CANNOT MOVE MORE THAN ONE CELL
 =  1.131    (WHEN MIN. R.F.=1)  AT K=   3, I=   2, J=  30

 MAXIMUM STEPSIZE WHICH MEETS STABILITY CRITERION OF THE ADVECTION TERM
 (FOR PURE FINITE-DIFFERENCE OPTION, MIXELM=0) 
 = 0.8960    (WHEN MIN. R.F.=1)  AT K=   3, I=   2, J=  31


 TOTAL NUMBER OF POINT SOURCES/SINKS PRESENT IN THE FLOW MODEL =   240

 MAXIMUM STEPSIZE WHICH MEETS STABILITY CRITERION OF THE SINK & SOURCE TERM
 = 0.1000E+31(WHEN MIN. R.F.=1)  AT K=   0, I=   0, J=   0

 MAXIMUM STEPSIZE WHICH MEETS STABILITY CRITERION OF THE DISPERSION TERM
 = 0.4835E-01(WHEN MIN. R.F.=1)  AT K=   3, I=   2, J=  30


     1 CALLS TO GCG PACKAGE FOR TRANSPORT TIME STEP   1 IN FLOW TIME STEP  31 STRESS PERIOD   1
     5 TOTAL ITERATIONS
  MAXIMUM CONCENTRATION CHANGES FOR EACH ITERATION:
  MAX. CHANGE LAYER,ROW,COL MAX. CHANGE LAYER,ROW,COL MAX. CHANGE LAYER,ROW,COL MAX. CHANGE LAYER,ROW,COL MAX. CHANGE LAYER,ROW,COL
 ------------------------------------------------------------------------------------------------------------------------------------
   0.2855E-02 (  2,  1, 44)  0.1043E-03 (  3,  3, 35)  0.4006E-05 (  4,  3, 33)  0.3345E-06 (  3,  2, 31)  0.1925E-07 (  4,  2, 31)

 NO OUTPUT CONTROL FOR STRESS PERIOD    1   TIME STEP  31


                                          ================================================
                                                         FROM TIME =  0.31000     TO   0.32000    

 
 SOLVING FOR HEAD 
 FLOW MODEL IS TRANSIENT
 FLOW MODEL CONTAINS CONSTANT-HEAD CELLS


 MAXIMUM STEPSIZE DURING WHICH ANY PARTICLE CANNOT MOVE MORE THAN ONE CELL
 =  1.131    (WHEN MIN. R.F.=1)  AT K=   3, I=   2, J=  30

 MAXIMUM STEPSIZE WHICH MEETS STABILITY CRITERION OF THE ADVECTION TERM
 (FOR PURE FINITE-DIFFERENCE OPTION, MIXELM=0) 
 = 0.8963    (WHEN MIN. R.F.=1)  AT K=   3, I=   2, J=  31


 TOTAL NUMBER OF POINT SOURCES/SINKS PRESENT IN THE FLOW MODEL =   240

 MAXIMUM STEPSIZE WHICH MEETS STABILITY CRITERION OF THE SINK & SOURCE TERM
 = 0.1000E+31(WHEN MIN. R.F.=1)  AT K=   0, I=   0, J=   0

 MAXIMUM STEPSIZE WHICH MEETS STABILITY CRITERION OF THE DISPERSION TERM
 = 0.4836E-01(WHEN MIN. R.F.=1)  AT K=   3, I=   2, J=  30


     1 CALLS TO GCG PACKAGE FOR TRANSPORT TIME STEP   1 IN FLOW TIME STEP  32 STRESS PERIOD   1
     5 TOTAL ITERATIONS
  MAXIMUM CONCENTRATION CHANGES FOR EACH ITERATION:
  MAX. CHANGE LAYER,ROW,COL MAX. CHANGE LAYER,ROW,COL MAX. CHANGE LAYER,ROW,COL MAX. CHANGE LAYER,ROW,COL MAX. CHANGE LAYER,ROW,COL
 ------------------------------------------------------------------------------------------------------------------------------------
   0.2817E-02 (  2,  1, 44)  0.1033E-03 (  3,  3, 35)  0.3954E-05 (  4,  3, 33)  0.3311E-06 (  3,  2, 31)  0.1907E-07 (  4,  2, 31)

 NO OUTPUT CONTROL FOR STRESS PERIOD    1   TIME STEP  32


                                          ================================================
                                                         FROM TIME =  0.32000     TO   0.33000    

 
 SOLVING FOR HEAD 
 FLOW MODEL IS TRANSIENT
 FLOW MODEL CONTAINS CONSTANT-HEAD CELLS


 MAXIMUM STEPSIZE DURING WHICH ANY PARTICLE CANNOT MOVE MORE THAN ONE CELL
 =  1.131    (WHEN MIN. R.F.=1)  AT K=   3, I=   2, J=  30

 MAXIMUM STEPSIZE WHICH MEETS STABILITY CRITERION OF THE ADVECTION TERM
 (FOR PURE FINITE-DIFFERENCE OPTION, MIXELM=0) 
 = 0.8966    (WHEN MIN. R.F.=1)  AT K=   3, I=   2, J=  31


 TOTAL NUMBER OF POINT SOURCES/SINKS PRESENT IN THE FLOW MODEL =   240

 MAXIMUM STEPSIZE WHICH MEETS STABILITY CRITERION OF THE SINK & SOURCE TERM
 = 0.1000E+31(WHEN MIN. R.F.=1)  AT K=   0, I=   0, J=   0

 MAXIMUM STEPSIZE WHICH MEETS STABILITY CRITERION OF THE DISPERSION TERM
 = 0.4837E-01(WHEN MIN. R.F.=1)  AT K=   3, I=   2, J=  30


     1 CALLS TO GCG PACKAGE FOR TRANSPORT TIME STEP   1 IN FLOW TIME STEP  33 STRESS PERIOD   1
     5 TOTAL ITERATIONS
  MAXIMUM CONCENTRATION CHANGES FOR EACH ITERATION:
  MAX. CHANGE LAYER,ROW,COL MAX. CHANGE LAYER,ROW,COL MAX. CHANGE LAYER,ROW,COL MAX. CHANGE LAYER,ROW,COL MAX. CHANGE LAYER,ROW,COL
 ------------------------------------------------------------------------------------------------------------------------------------
   0.2781E-02 (  2,  1, 44)  0.1024E-03 (  3,  3, 35)  0.3903E-05 (  4,  3, 33)  0.3278E-06 (  3,  2, 31)  0.1889E-07 (  4,  2, 31)

 NO OUTPUT CONTROL FOR STRESS PERIOD    1   TIME STEP  33


                                          ================================================
                                                         FROM TIME =  0.33000     TO   0.34000    

 
 SOLVING FOR HEAD 
 FLOW MODEL IS TRANSIENT
 FLOW MODEL CONTAINS CONSTANT-HEAD CELLS


 MAXIMUM STEPSIZE DURING WHICH ANY PARTICLE CANNOT MOVE MORE THAN ONE CELL
 =  1.132    (WHEN MIN. R.F.=1)  AT K=   3, I=   2, J=  30

 MAXIMUM STEPSIZE WHICH MEETS STABILITY CRITERION OF THE ADVECTION TERM
 (FOR PURE FINITE-DIFFERENCE OPTION, MIXELM=0) 
 = 0.8969    (WHEN MIN. R.F.=1)  AT K=   3, I=   2, J=  31


 TOTAL NUMBER OF POINT SOURCES/SINKS PRESENT IN THE FLOW MODEL =   240

 MAXIMUM STEPSIZE WHICH MEETS STABILITY CRITERION OF THE SINK & SOURCE TERM
 = 0.1000E+31(WHEN MIN. R.F.=1)  AT K=   0, I=   0, J=   0

 MAXIMUM STEPSIZE WHICH MEETS STABILITY CRITERION OF THE DISPERSION TERM
 = 0.4838E-01(WHEN MIN. R.F.=1)  AT K=   3, I=   2, J=  30


     1 CALLS TO GCG PACKAGE FOR TRANSPORT TIME STEP   1 IN FLOW TIME STEP  34 STRESS PERIOD   1
     5 TOTAL ITERATIONS
  MAXIMUM CONCENTRATION CHANGES FOR EACH ITERATION:
  MAX. CHANGE LAYER,ROW,COL MAX. CHANGE LAYER,ROW,COL MAX. CHANGE LAYER,ROW,COL MAX. CHANGE LAYER,ROW,COL MAX. CHANGE LAYER,ROW,COL
 ------------------------------------------------------------------------------------------------------------------------------------
   0.2745E-02 (  2,  1, 44)  0.1014E-03 (  3,  3, 35)  0.3854E-05 (  4,  3, 33)  0.3245E-06 (  3,  2, 31)  0.1871E-07 (  4,  2, 31)

 NO OUTPUT CONTROL FOR STRESS PERIOD    1   TIME STEP  34


                                          ================================================
                                                         FROM TIME =  0.34000     TO   0.35000    

 
 SOLVING FOR HEAD 
 FLOW MODEL IS TRANSIENT
 FLOW MODEL CONTAINS CONSTANT-HEAD CELLS


 MAXIMUM STEPSIZE DURING WHICH ANY PARTICLE CANNOT MOVE MORE THAN ONE CELL
 =  1.132    (WHEN MIN. R.F.=1)  AT K=   3, I=   2, J=  30

 MAXIMUM STEPSIZE WHICH MEETS STABILITY CRITERION OF THE ADVECTION TERM
 (FOR PURE FINITE-DIFFERENCE OPTION, MIXELM=0) 
 = 0.8972    (WHEN MIN. R.F.=1)  AT K=   3, I=   2, J=  31


 TOTAL NUMBER OF POINT SOURCES/SINKS PRESENT IN THE FLOW MODEL =   240

 MAXIMUM STEPSIZE WHICH MEETS STABILITY CRITERION OF THE SINK & SOURCE TERM
 = 0.1000E+31(WHEN MIN. R.F.=1)  AT K=   0, I=   0, J=   0

 MAXIMUM STEPSIZE WHICH MEETS STABILITY CRITERION OF THE DISPERSION TERM
 = 0.4839E-01(WHEN MIN. R.F.=1)  AT K=   3, I=   2, J=  30


     1 CALLS TO GCG PACKAGE FOR TRANSPORT TIME STEP   1 IN FLOW TIME STEP  35 STRESS PERIOD   1
     5 TOTAL ITERATIONS
  MAXIMUM CONCENTRATION CHANGES FOR EACH ITERATION:
  MAX. CHANGE LAYER,ROW,COL MAX. CHANGE LAYER,ROW,COL MAX. CHANGE LAYER,ROW,COL MAX. CHANGE LAYER,ROW,COL MAX. CHANGE LAYER,ROW,COL
 ------------------------------------------------------------------------------------------------------------------------------------
   0.2710E-02 (  2,  1, 45)  0.1005E-03 (  3,  3, 35)  0.3805E-05 (  4,  3, 33)  0.3212E-06 (  3,  2, 31)  0.1853E-07 (  4,  2, 31)

 NO OUTPUT CONTROL FOR STRESS PERIOD    1   TIME STEP  35


                                          ================================================
                                                         FROM TIME =  0.35000     TO   0.36000    

 
 SOLVING FOR HEAD 
 FLOW MODEL IS TRANSIENT
 FLOW MODEL CONTAINS CONSTANT-HEAD CELLS


 MAXIMUM STEPSIZE DURING WHICH ANY PARTICLE CANNOT MOVE MORE THAN ONE CELL
 =  1.132    (WHEN MIN. R.F.=1)  AT K=   3, I=   2, J=  30

 MAXIMUM STEPSIZE WHICH MEETS STABILITY CRITERION OF THE ADVECTION TERM
 (FOR PURE FINITE-DIFFERENCE OPTION, MIXELM=0) 
 = 0.8975    (WHEN MIN. R.F.=1)  AT K=   3, I=   2, J=  31


 TOTAL NUMBER OF POINT SOURCES/SINKS PRESENT IN THE FLOW MODEL =   240

 MAXIMUM STEPSIZE WHICH MEETS STABILITY CRITERION OF THE SINK & SOURCE TERM
 = 0.1000E+31(WHEN MIN. R.F.=1)  AT K=   0, I=   0, J=   0

 MAXIMUM STEPSIZE WHICH MEETS STABILITY CRITERION OF THE DISPERSION TERM
 = 0.4840E-01(WHEN MIN. R.F.=1)  AT K=   3, I=   2, J=  30


     1 CALLS TO GCG PACKAGE FOR TRANSPORT TIME STEP   1 IN FLOW TIME STEP  36 STRESS PERIOD   1
     5 TOTAL ITERATIONS
  MAXIMUM CONCENTRATION CHANGES FOR EACH ITERATION:
  MAX. CHANGE LAYER,ROW,COL MAX. CHANGE LAYER,ROW,COL MAX. CHANGE LAYER,ROW,COL MAX. CHANGE LAYER,ROW,COL MAX. CHANGE LAYER,ROW,COL
 ------------------------------------------------------------------------------------------------------------------------------------
   0.2677E-02 (  2,  1, 45)  0.9951E-04 (  3,  3, 35)  0.3758E-05 (  4,  3, 33)  0.3180E-06 (  3,  2, 31)  0.1836E-07 (  4,  2, 31)

 NO OUTPUT CONTROL FOR STRESS PERIOD    1   TIME STEP  36


                                          ================================================
                                                         FROM TIME =  0.36000     TO   0.37000    

 
 SOLVING FOR HEAD 
 FLOW MODEL IS TRANSIENT
 FLOW MODEL CONTAINS CONSTANT-HEAD CELLS


 MAXIMUM STEPSIZE DURING WHICH ANY PARTICLE CANNOT MOVE MORE THAN ONE CELL
 =  1.133    (WHEN MIN. R.F.=1)  AT K=   3, I=   2, J=  30

 MAXIMUM STEPSIZE WHICH MEETS STABILITY CRITERION OF THE ADVECTION TERM
 (FOR PURE FINITE-DIFFERENCE OPTION, MIXELM=0) 
 = 0.8978    (WHEN MIN. R.F.=1)  AT K=   3, I=   2, J=  31


 TOTAL NUMBER OF POINT SOURCES/SINKS PRESENT IN THE FLOW MODEL =   240

 MAXIMUM STEPSIZE WHICH MEETS STABILITY CRITERION OF THE SINK & SOURCE TERM
 = 0.1000E+31(WHEN MIN. R.F.=1)  AT K=   0, I=   0, J=   0

 MAXIMUM STEPSIZE WHICH MEETS STABILITY CRITERION OF THE DISPERSION TERM
 = 0.4842E-01(WHEN MIN. R.F.=1)  AT K=   3, I=   2, J=  30


     1 CALLS TO GCG PACKAGE FOR TRANSPORT TIME STEP   1 IN FLOW TIME STEP  37 STRESS PERIOD   1
     5 TOTAL ITERATIONS
  MAXIMUM CONCENTRATION CHANGES FOR EACH ITERATION:
  MAX. CHANGE LAYER,ROW,COL MAX. CHANGE LAYER,ROW,COL MAX. CHANGE LAYER,ROW,COL MAX. CHANGE LAYER,ROW,COL MAX. CHANGE LAYER,ROW,COL
 ------------------------------------------------------------------------------------------------------------------------------------
   0.2644E-02 (  2,  1, 45)  0.9857E-04 (  3,  3, 35)  0.3712E-05 (  4,  3, 33)  0.3149E-06 (  3,  2, 31)  0.1818E-07 (  4,  2, 31)

 NO OUTPUT CONTROL FOR STRESS PERIOD    1   TIME STEP  37


                                          ================================================
                                                         FROM TIME =  0.37000     TO   0.38000    

 
 SOLVING FOR HEAD 
 FLOW MODEL IS TRANSIENT
 FLOW MODEL CONTAINS CONSTANT-HEAD CELLS


 MAXIMUM STEPSIZE DURING WHICH ANY PARTICLE CANNOT MOVE MORE THAN ONE CELL
 =  1.133    (WHEN MIN. R.F.=1)  AT K=   3, I=   2, J=  30

 MAXIMUM STEPSIZE WHICH MEETS STABILITY CRITERION OF THE ADVECTION TERM
 (FOR PURE FINITE-DIFFERENCE OPTION, MIXELM=0) 
 = 0.8981    (WHEN MIN. R.F.=1)  AT K=   3, I=   2, J=  31


 TOTAL NUMBER OF POINT SOURCES/SINKS PRESENT IN THE FLOW MODEL =   240

 MAXIMUM STEPSIZE WHICH MEETS STABILITY CRITERION OF THE SINK & SOURCE TERM
 = 0.1000E+31(WHEN MIN. R.F.=1)  AT K=   0, I=   0, J=   0

 MAXIMUM STEPSIZE WHICH MEETS STABILITY CRITERION OF THE DISPERSION TERM
 = 0.4843E-01(WHEN MIN. R.F.=1)  AT K=   3, I=   2, J=  30


     1 CALLS TO GCG PACKAGE FOR TRANSPORT TIME STEP   1 IN FLOW TIME STEP  38 STRESS PERIOD   1
     5 TOTAL ITERATIONS
  MAXIMUM CONCENTRATION CHANGES FOR EACH ITERATION:
  MAX. CHANGE LAYER,ROW,COL MAX. CHANGE LAYER,ROW,COL MAX. CHANGE LAYER,ROW,COL MAX. CHANGE LAYER,ROW,COL MAX. CHANGE LAYER,ROW,COL
 ------------------------------------------------------------------------------------------------------------------------------------
   0.2612E-02 (  2,  1, 45)  0.9765E-04 (  3,  3, 35)  0.3667E-05 (  4,  3, 33)  0.3118E-06 (  3,  2, 31)  0.1801E-07 (  4,  2, 31)

 NO OUTPUT CONTROL FOR STRESS PERIOD    1   TIME STEP  38


                                          ================================================
                                                         FROM TIME =  0.38000     TO   0.39000    

 
 SOLVING FOR HEAD 
 FLOW MODEL IS TRANSIENT
 FLOW MODEL CONTAINS CONSTANT-HEAD CELLS


 MAXIMUM STEPSIZE DURING WHICH ANY PARTICLE CANNOT MOVE MORE THAN ONE CELL
 =  1.133    (WHEN MIN. R.F.=1)  AT K=   3, I=   2, J=  30

 MAXIMUM STEPSIZE WHICH MEETS STABILITY CRITERION OF THE ADVECTION TERM
 (FOR PURE FINITE-DIFFERENCE OPTION, MIXELM=0) 
 = 0.8984    (WHEN MIN. R.F.=1)  AT K=   3, I=   2, J=  31


 TOTAL NUMBER OF POINT SOURCES/SINKS PRESENT IN THE FLOW MODEL =   240

 MAXIMUM STEPSIZE WHICH MEETS STABILITY CRITERION OF THE SINK & SOURCE TERM
 = 0.1000E+31(WHEN MIN. R.F.=1)  AT K=   0, I=   0, J=   0

 MAXIMUM STEPSIZE WHICH MEETS STABILITY CRITERION OF THE DISPERSION TERM
 = 0.4844E-01(WHEN MIN. R.F.=1)  AT K=   3, I=   2, J=  30


     1 CALLS TO GCG PACKAGE FOR TRANSPORT TIME STEP   1 IN FLOW TIME STEP  39 STRESS PERIOD   1
     5 TOTAL ITERATIONS
  MAXIMUM CONCENTRATION CHANGES FOR EACH ITERATION:
  MAX. CHANGE LAYER,ROW,COL MAX. CHANGE LAYER,ROW,COL MAX. CHANGE LAYER,ROW,COL MAX. CHANGE LAYER,ROW,COL MAX. CHANGE LAYER,ROW,COL
 ------------------------------------------------------------------------------------------------------------------------------------
   0.2580E-02 (  2,  1, 45)  0.9674E-04 (  3,  3, 35)  0.3623E-05 (  4,  3, 33)  0.3087E-06 (  3,  2, 31)  0.1785E-07 (  4,  2, 31)

 NO OUTPUT CONTROL FOR STRESS PERIOD    1   TIME STEP  39


                                          ================================================
                                                         FROM TIME =  0.39000     TO   0.40000    

 
 SOLVING FOR HEAD 
 FLOW MODEL IS TRANSIENT
 FLOW MODEL CONTAINS CONSTANT-HEAD CELLS


 MAXIMUM STEPSIZE DURING WHICH ANY PARTICLE CANNOT MOVE MORE THAN ONE CELL
 =  1.134    (WHEN MIN. R.F.=1)  AT K=   3, I=   2, J=  30

 MAXIMUM STEPSIZE WHICH MEETS STABILITY CRITERION OF THE ADVECTION TERM
 (FOR PURE FINITE-DIFFERENCE OPTION, MIXELM=0) 
 = 0.8987    (WHEN MIN. R.F.=1)  AT K=   3, I=   2, J=  31


 TOTAL NUMBER OF POINT SOURCES/SINKS PRESENT IN THE FLOW MODEL =   240

 MAXIMUM STEPSIZE WHICH MEETS STABILITY CRITERION OF THE SINK & SOURCE TERM
 = 0.1000E+31(WHEN MIN. R.F.=1)  AT K=   0, I=   0, J=   0

 MAXIMUM STEPSIZE WHICH MEETS STABILITY CRITERION OF THE DISPERSION TERM
 = 0.4846E-01(WHEN MIN. R.F.=1)  AT K=   3, I=   2, J=  30


     1 CALLS TO GCG PACKAGE FOR TRANSPORT TIME STEP   1 IN FLOW TIME STEP  40 STRESS PERIOD   1
     5 TOTAL ITERATIONS
  MAXIMUM CONCENTRATION CHANGES FOR EACH ITERATION:
  MAX. CHANGE LAYER,ROW,COL MAX. CHANGE LAYER,ROW,COL MAX. CHANGE LAYER,ROW,COL MAX. CHANGE LAYER,ROW,COL MAX. CHANGE LAYER,ROW,COL
 ------------------------------------------------------------------------------------------------------------------------------------
   0.2549E-02 (  2,  1, 45)  0.9584E-04 (  3,  3, 35)  0.3581E-05 (  4,  3, 33)  0.3057E-06 (  3,  2, 31)  0.1768E-07 (  4,  2, 31)

 NO OUTPUT CONTROL FOR STRESS PERIOD    1   TIME STEP  40


                                          ================================================
                                                         FROM TIME =  0.40000     TO   0.41000    

 
 SOLVING FOR HEAD 
 FLOW MODEL IS TRANSIENT
 FLOW MODEL CONTAINS CONSTANT-HEAD CELLS


 MAXIMUM STEPSIZE DURING WHICH ANY PARTICLE CANNOT MOVE MORE THAN ONE CELL
 =  1.134    (WHEN MIN. R.F.=1)  AT K=   3, I=   2, J=  30

 MAXIMUM STEPSIZE WHICH MEETS STABILITY CRITERION OF THE ADVECTION TERM
 (FOR PURE FINITE-DIFFERENCE OPTION, MIXELM=0) 
 = 0.8990    (WHEN MIN. R.F.=1)  AT K=   3, I=   2, J=  31


 TOTAL NUMBER OF POINT SOURCES/SINKS PRESENT IN THE FLOW MODEL =   240

 MAXIMUM STEPSIZE WHICH MEETS STABILITY CRITERION OF THE SINK & SOURCE TERM
 = 0.1000E+31(WHEN MIN. R.F.=1)  AT K=   0, I=   0, J=   0

 MAXIMUM STEPSIZE WHICH MEETS STABILITY CRITERION OF THE DISPERSION TERM
 = 0.4847E-01(WHEN MIN. R.F.=1)  AT K=   3, I=   2, J=  30


     1 CALLS TO GCG PACKAGE FOR TRANSPORT TIME STEP   1 IN FLOW TIME STEP  41 STRESS PERIOD   1
     5 TOTAL ITERATIONS
  MAXIMUM CONCENTRATION CHANGES FOR EACH ITERATION:
  MAX. CHANGE LAYER,ROW,COL MAX. CHANGE LAYER,ROW,COL MAX. CHANGE LAYER,ROW,COL MAX. CHANGE LAYER,ROW,COL MAX. CHANGE LAYER,ROW,COL
 ------------------------------------------------------------------------------------------------------------------------------------
   0.2519E-02 (  2,  1, 45)  0.9495E-04 (  3,  3, 35)  0.3539E-05 (  4,  3, 33)  0.3028E-06 (  3,  2, 31)  0.1752E-07 (  4,  2, 31)

 NO OUTPUT CONTROL FOR STRESS PERIOD    1   TIME STEP  41


                                          ================================================
                                                         FROM TIME =  0.41000     TO   0.42000    

 
 SOLVING FOR HEAD 
 FLOW MODEL IS TRANSIENT
 FLOW MODEL CONTAINS CONSTANT-HEAD CELLS


 MAXIMUM STEPSIZE DURING WHICH ANY PARTICLE CANNOT MOVE MORE THAN ONE CELL
 =  1.134    (WHEN MIN. R.F.=1)  AT K=   3, I=   2, J=  30

 MAXIMUM STEPSIZE WHICH MEETS STABILITY CRITERION OF THE ADVECTION TERM
 (FOR PURE FINITE-DIFFERENCE OPTION, MIXELM=0) 
 = 0.8993    (WHEN MIN. R.F.=1)  AT K=   3, I=   2, J=  31


 TOTAL NUMBER OF POINT SOURCES/SINKS PRESENT IN THE FLOW MODEL =   240

 MAXIMUM STEPSIZE WHICH MEETS STABILITY CRITERION OF THE SINK & SOURCE TERM
 = 0.1000E+31(WHEN MIN. R.F.=1)  AT K=   0, I=   0, J=   0

 MAXIMUM STEPSIZE WHICH MEETS STABILITY CRITERION OF THE DISPERSION TERM
 = 0.4848E-01(WHEN MIN. R.F.=1)  AT K=   3, I=   2, J=  30


     1 CALLS TO GCG PACKAGE FOR TRANSPORT TIME STEP   1 IN FLOW TIME STEP  42 STRESS PERIOD   1
     5 TOTAL ITERATIONS
  MAXIMUM CONCENTRATION CHANGES FOR EACH ITERATION:
  MAX. CHANGE LAYER,ROW,COL MAX. CHANGE LAYER,ROW,COL MAX. CHANGE LAYER,ROW,COL MAX. CHANGE LAYER,ROW,COL MAX. CHANGE LAYER,ROW,COL
 ------------------------------------------------------------------------------------------------------------------------------------
   0.2489E-02 (  2,  1, 45)  0.9408E-04 (  3,  3, 35)  0.3498E-05 (  4,  3, 33)  0.2999E-06 (  3,  2, 31)  0.1735E-07 (  4,  2, 31)

 NO OUTPUT CONTROL FOR STRESS PERIOD    1   TIME STEP  42


                                          ================================================
                                                         FROM TIME =  0.42000     TO   0.43000    

 
 SOLVING FOR HEAD 
 FLOW MODEL IS TRANSIENT
 FLOW MODEL CONTAINS CONSTANT-HEAD CELLS


 MAXIMUM STEPSIZE DURING WHICH ANY PARTICLE CANNOT MOVE MORE THAN ONE CELL
 =  1.135    (WHEN MIN. R.F.=1)  AT K=   3, I=   2, J=  30

 MAXIMUM STEPSIZE WHICH MEETS STABILITY CRITERION OF THE ADVECTION TERM
 (FOR PURE FINITE-DIFFERENCE OPTION, MIXELM=0) 
 = 0.8996    (WHEN MIN. R.F.=1)  AT K=   3, I=   2, J=  31


 TOTAL NUMBER OF POINT SOURCES/SINKS PRESENT IN THE FLOW MODEL =   240

 MAXIMUM STEPSIZE WHICH MEETS STABILITY CRITERION OF THE SINK & SOURCE TERM
 = 0.1000E+31(WHEN MIN. R.F.=1)  AT K=   0, I=   0, J=   0

 MAXIMUM STEPSIZE WHICH MEETS STABILITY CRITERION OF THE DISPERSION TERM
 = 0.4850E-01(WHEN MIN. R.F.=1)  AT K=   3, I=   2, J=  30


     1 CALLS TO GCG PACKAGE FOR TRANSPORT TIME STEP   1 IN FLOW TIME STEP  43 STRESS PERIOD   1
     5 TOTAL ITERATIONS
  MAXIMUM CONCENTRATION CHANGES FOR EACH ITERATION:
  MAX. CHANGE LAYER,ROW,COL MAX. CHANGE LAYER,ROW,COL MAX. CHANGE LAYER,ROW,COL MAX. CHANGE LAYER,ROW,COL MAX. CHANGE LAYER,ROW,COL
 ------------------------------------------------------------------------------------------------------------------------------------
   0.2460E-02 (  2,  1, 46)  0.9321E-04 (  3,  3, 35)  0.3458E-05 (  4,  3, 33)  0.2970E-06 (  3,  2, 31)  0.1720E-07 (  4,  2, 31)

 NO OUTPUT CONTROL FOR STRESS PERIOD    1   TIME STEP  43


                                          ================================================
                                                         FROM TIME =  0.43000     TO   0.44000    

 
 SOLVING FOR HEAD 
 FLOW MODEL IS TRANSIENT
 FLOW MODEL CONTAINS CONSTANT-HEAD CELLS


 MAXIMUM STEPSIZE DURING WHICH ANY PARTICLE CANNOT MOVE MORE THAN ONE CELL
 =  1.135    (WHEN MIN. R.F.=1)  AT K=   3, I=   2, J=  30

 MAXIMUM STEPSIZE WHICH MEETS STABILITY CRITERION OF THE ADVECTION TERM
 (FOR PURE FINITE-DIFFERENCE OPTION, MIXELM=0) 
 = 0.8999    (WHEN MIN. R.F.=1)  AT K=   3, I=   2, J=  31


 TOTAL NUMBER OF POINT SOURCES/SINKS PRESENT IN THE FLOW MODEL =   240

 MAXIMUM STEPSIZE WHICH MEETS STABILITY CRITERION OF THE SINK & SOURCE TERM
 = 0.1000E+31(WHEN MIN. R.F.=1)  AT K=   0, I=   0, J=   0

 MAXIMUM STEPSIZE WHICH MEETS STABILITY CRITERION OF THE DISPERSION TERM
 = 0.4851E-01(WHEN MIN. R.F.=1)  AT K=   3, I=   2, J=  30


     1 CALLS TO GCG PACKAGE FOR TRANSPORT TIME STEP   1 IN FLOW TIME STEP  44 STRESS PERIOD   1
     5 TOTAL ITERATIONS
  MAXIMUM CONCENTRATION CHANGES FOR EACH ITERATION:
  MAX. CHANGE LAYER,ROW,COL MAX. CHANGE LAYER,ROW,COL MAX. CHANGE LAYER,ROW,COL MAX. CHANGE LAYER,ROW,COL MAX. CHANGE LAYER,ROW,COL
 ------------------------------------------------------------------------------------------------------------------------------------
   0.2432E-02 (  2,  1, 46)  0.9236E-04 (  3,  3, 35)  0.3419E-05 (  4,  3, 33)  0.2942E-06 (  3,  2, 31)  0.1704E-07 (  4,  2, 31)

 NO OUTPUT CONTROL FOR STRESS PERIOD    1   TIME STEP  44


                                          ================================================
                                                         FROM TIME =  0.44000     TO   0.45000    

 
 SOLVING FOR HEAD 
 FLOW MODEL IS TRANSIENT
 FLOW MODEL CONTAINS CONSTANT-HEAD CELLS


 MAXIMUM STEPSIZE DURING WHICH ANY PARTICLE CANNOT MOVE MORE THAN ONE CELL
 =  1.136    (WHEN MIN. R.F.=1)  AT K=   3, I=   2, J=  30

 MAXIMUM STEPSIZE WHICH MEETS STABILITY CRITERION OF THE ADVECTION TERM
 (FOR PURE FINITE-DIFFERENCE OPTION, MIXELM=0) 
 = 0.9002    (WHEN MIN. R.F.=1)  AT K=   3, I=   2, J=  31


 TOTAL NUMBER OF POINT SOURCES/SINKS PRESENT IN THE FLOW MODEL =   240

 MAXIMUM STEPSIZE WHICH MEETS STABILITY CRITERION OF THE SINK & SOURCE TERM
 = 0.1000E+31(WHEN MIN. R.F.=1)  AT K=   0, I=   0, J=   0

 MAXIMUM STEPSIZE WHICH MEETS STABILITY CRITERION OF THE DISPERSION TERM
 = 0.4853E-01(WHEN MIN. R.F.=1)  AT K=   3, I=   2, J=  30


     1 CALLS TO GCG PACKAGE FOR TRANSPORT TIME STEP   1 IN FLOW TIME STEP  45 STRESS PERIOD   1
     5 TOTAL ITERATIONS
  MAXIMUM CONCENTRATION CHANGES FOR EACH ITERATION:
  MAX. CHANGE LAYER,ROW,COL MAX. CHANGE LAYER,ROW,COL MAX. CHANGE LAYER,ROW,COL MAX. CHANGE LAYER,ROW,COL MAX. CHANGE LAYER,ROW,COL
 ------------------------------------------------------------------------------------------------------------------------------------
   0.2404E-02 (  2,  1, 46)  0.9152E-04 (  3,  3, 35)  0.3381E-05 (  4,  3, 33)  0.2914E-06 (  3,  2, 31)  0.1689E-07 (  4,  2, 31)

 NO OUTPUT CONTROL FOR STRESS PERIOD    1   TIME STEP  45


                                          ================================================
                                                         FROM TIME =  0.45000     TO   0.46000    

 
 SOLVING FOR HEAD 
 FLOW MODEL IS TRANSIENT
 FLOW MODEL CONTAINS CONSTANT-HEAD CELLS


 MAXIMUM STEPSIZE DURING WHICH ANY PARTICLE CANNOT MOVE MORE THAN ONE CELL
 =  1.136    (WHEN MIN. R.F.=1)  AT K=   3, I=   2, J=  30

 MAXIMUM STEPSIZE WHICH MEETS STABILITY CRITERION OF THE ADVECTION TERM
 (FOR PURE FINITE-DIFFERENCE OPTION, MIXELM=0) 
 = 0.9005    (WHEN MIN. R.F.=1)  AT K=   3, I=   2, J=  31


 TOTAL NUMBER OF POINT SOURCES/SINKS PRESENT IN THE FLOW MODEL =   240

 MAXIMUM STEPSIZE WHICH MEETS STABILITY CRITERION OF THE SINK & SOURCE TERM
 = 0.1000E+31(WHEN MIN. R.F.=1)  AT K=   0, I=   0, J=   0

 MAXIMUM STEPSIZE WHICH MEETS STABILITY CRITERION OF THE DISPERSION TERM
 = 0.4854E-01(WHEN MIN. R.F.=1)  AT K=   3, I=   2, J=  30


     1 CALLS TO GCG PACKAGE FOR TRANSPORT TIME STEP   1 IN FLOW TIME STEP  46 STRESS PERIOD   1
     5 TOTAL ITERATIONS
  MAXIMUM CONCENTRATION CHANGES FOR EACH ITERATION:
  MAX. CHANGE LAYER,ROW,COL MAX. CHANGE LAYER,ROW,COL MAX. CHANGE LAYER,ROW,COL MAX. CHANGE LAYER,ROW,COL MAX. CHANGE LAYER,ROW,COL
 ------------------------------------------------------------------------------------------------------------------------------------
   0.2377E-02 (  2,  1, 46)  0.9069E-04 (  3,  3, 35)  0.3344E-05 (  4,  3, 33)  0.2887E-06 (  3,  2, 31)  0.1673E-07 (  4,  2, 31)

 NO OUTPUT CONTROL FOR STRESS PERIOD    1   TIME STEP  46


                                          ================================================
                                                         FROM TIME =  0.46000     TO   0.47000    

 
 SOLVING FOR HEAD 
 FLOW MODEL IS TRANSIENT
 FLOW MODEL CONTAINS CONSTANT-HEAD CELLS


 MAXIMUM STEPSIZE DURING WHICH ANY PARTICLE CANNOT MOVE MORE THAN ONE CELL
 =  1.136    (WHEN MIN. R.F.=1)  AT K=   3, I=   2, J=  30

 MAXIMUM STEPSIZE WHICH MEETS STABILITY CRITERION OF THE ADVECTION TERM
 (FOR PURE FINITE-DIFFERENCE OPTION, MIXELM=0) 
 = 0.9008    (WHEN MIN. R.F.=1)  AT K=   3, I=   2, J=  31


 TOTAL NUMBER OF POINT SOURCES/SINKS PRESENT IN THE FLOW MODEL =   240

 MAXIMUM STEPSIZE WHICH MEETS STABILITY CRITERION OF THE SINK & SOURCE TERM
 = 0.1000E+31(WHEN MIN. R.F.=1)  AT K=   0, I=   0, J=   0

 MAXIMUM STEPSIZE WHICH MEETS STABILITY CRITERION OF THE DISPERSION TERM
 = 0.4855E-01(WHEN MIN. R.F.=1)  AT K=   3, I=   2, J=  30


     1 CALLS TO GCG PACKAGE FOR TRANSPORT TIME STEP   1 IN FLOW TIME STEP  47 STRESS PERIOD   1
     5 TOTAL ITERATIONS
  MAXIMUM CONCENTRATION CHANGES FOR EACH ITERATION:
  MAX. CHANGE LAYER,ROW,COL MAX. CHANGE LAYER,ROW,COL MAX. CHANGE LAYER,ROW,COL MAX. CHANGE LAYER,ROW,COL MAX. CHANGE LAYER,ROW,COL
 ------------------------------------------------------------------------------------------------------------------------------------
   0.2351E-02 (  2,  1, 46)  0.8988E-04 (  3,  3, 35)  0.3307E-05 (  4,  3, 33)  0.2861E-06 (  3,  2, 31)  0.1658E-07 (  4,  2, 31)

 NO OUTPUT CONTROL FOR STRESS PERIOD    1   TIME STEP  47


                                          ================================================
                                                         FROM TIME =  0.47000     TO   0.48000    

 
 SOLVING FOR HEAD 
 FLOW MODEL IS TRANSIENT
 FLOW MODEL CONTAINS CONSTANT-HEAD CELLS


 MAXIMUM STEPSIZE DURING WHICH ANY PARTICLE CANNOT MOVE MORE THAN ONE CELL
 =  1.137    (WHEN MIN. R.F.=1)  AT K=   3, I=   2, J=  30

 MAXIMUM STEPSIZE WHICH MEETS STABILITY CRITERION OF THE ADVECTION TERM
 (FOR PURE FINITE-DIFFERENCE OPTION, MIXELM=0) 
 = 0.9011    (WHEN MIN. R.F.=1)  AT K=   3, I=   2, J=  31


 TOTAL NUMBER OF POINT SOURCES/SINKS PRESENT IN THE FLOW MODEL =   240

 MAXIMUM STEPSIZE WHICH MEETS STABILITY CRITERION OF THE SINK & SOURCE TERM
 = 0.1000E+31(WHEN MIN. R.F.=1)  AT K=   0, I=   0, J=   0

 MAXIMUM STEPSIZE WHICH MEETS STABILITY CRITERION OF THE DISPERSION TERM
 = 0.4857E-01(WHEN MIN. R.F.=1)  AT K=   3, I=   2, J=  30


     1 CALLS TO GCG PACKAGE FOR TRANSPORT TIME STEP   1 IN FLOW TIME STEP  48 STRESS PERIOD   1
     5 TOTAL ITERATIONS
  MAXIMUM CONCENTRATION CHANGES FOR EACH ITERATION:
  MAX. CHANGE LAYER,ROW,COL MAX. CHANGE LAYER,ROW,COL MAX. CHANGE LAYER,ROW,COL MAX. CHANGE LAYER,ROW,COL MAX. CHANGE LAYER,ROW,COL
 ------------------------------------------------------------------------------------------------------------------------------------
   0.2324E-02 (  2,  1, 46)  0.8907E-04 (  3,  3, 35)  0.3272E-05 (  4,  3, 33)  0.2834E-06 (  3,  2, 31)  0.1644E-07 (  4,  2, 31)

 NO OUTPUT CONTROL FOR STRESS PERIOD    1   TIME STEP  48


                                          ================================================
                                                         FROM TIME =  0.48000     TO   0.49000    

 
 SOLVING FOR HEAD 
 FLOW MODEL IS TRANSIENT
 FLOW MODEL CONTAINS CONSTANT-HEAD CELLS


 MAXIMUM STEPSIZE DURING WHICH ANY PARTICLE CANNOT MOVE MORE THAN ONE CELL
 =  1.137    (WHEN MIN. R.F.=1)  AT K=   3, I=   2, J=  30

 MAXIMUM STEPSIZE WHICH MEETS STABILITY CRITERION OF THE ADVECTION TERM
 (FOR PURE FINITE-DIFFERENCE OPTION, MIXELM=0) 
 = 0.9014    (WHEN MIN. R.F.=1)  AT K=   3, I=   2, J=  31


 TOTAL NUMBER OF POINT SOURCES/SINKS PRESENT IN THE FLOW MODEL =   240

 MAXIMUM STEPSIZE WHICH MEETS STABILITY CRITERION OF THE SINK & SOURCE TERM
 = 0.1000E+31(WHEN MIN. R.F.=1)  AT K=   0, I=   0, J=   0

 MAXIMUM STEPSIZE WHICH MEETS STABILITY CRITERION OF THE DISPERSION TERM
 = 0.4858E-01(WHEN MIN. R.F.=1)  AT K=   3, I=   2, J=  30


     1 CALLS TO GCG PACKAGE FOR TRANSPORT TIME STEP   1 IN FLOW TIME STEP  49 STRESS PERIOD   1
     5 TOTAL ITERATIONS
  MAXIMUM CONCENTRATION CHANGES FOR EACH ITERATION:
  MAX. CHANGE LAYER,ROW,COL MAX. CHANGE LAYER,ROW,COL MAX. CHANGE LAYER,ROW,COL MAX. CHANGE LAYER,ROW,COL MAX. CHANGE LAYER,ROW,COL
 ------------------------------------------------------------------------------------------------------------------------------------
   0.2299E-02 (  2,  1, 46)  0.8828E-04 (  3,  3, 35)  0.3237E-05 (  4,  3, 33)  0.2809E-06 (  3,  2, 31)  0.1629E-07 (  4,  2, 31)

 NO OUTPUT CONTROL FOR STRESS PERIOD    1   TIME STEP  49


                                          ================================================
                                                         FROM TIME =  0.49000     TO   0.50000    

 
 SOLVING FOR HEAD 
 FLOW MODEL IS TRANSIENT
 FLOW MODEL CONTAINS CONSTANT-HEAD CELLS


 MAXIMUM STEPSIZE DURING WHICH ANY PARTICLE CANNOT MOVE MORE THAN ONE CELL
 =  1.137    (WHEN MIN. R.F.=1)  AT K=   3, I=   2, J=  30

 MAXIMUM STEPSIZE WHICH MEETS STABILITY CRITERION OF THE ADVECTION TERM
 (FOR PURE FINITE-DIFFERENCE OPTION, MIXELM=0) 
 = 0.9017    (WHEN MIN. R.F.=1)  AT K=   3, I=   2, J=  31


 TOTAL NUMBER OF POINT SOURCES/SINKS PRESENT IN THE FLOW MODEL =   240

 MAXIMUM STEPSIZE WHICH MEETS STABILITY CRITERION OF THE SINK & SOURCE TERM
 = 0.1000E+31(WHEN MIN. R.F.=1)  AT K=   0, I=   0, J=   0

 MAXIMUM STEPSIZE WHICH MEETS STABILITY CRITERION OF THE DISPERSION TERM
 = 0.4860E-01(WHEN MIN. R.F.=1)  AT K=   3, I=   2, J=  30


     1 CALLS TO GCG PACKAGE FOR TRANSPORT TIME STEP   1 IN FLOW TIME STEP  50 STRESS PERIOD   1
     5 TOTAL ITERATIONS
  MAXIMUM CONCENTRATION CHANGES FOR EACH ITERATION:
  MAX. CHANGE LAYER,ROW,COL MAX. CHANGE LAYER,ROW,COL MAX. CHANGE LAYER,ROW,COL MAX. CHANGE LAYER,ROW,COL MAX. CHANGE LAYER,ROW,COL
 ------------------------------------------------------------------------------------------------------------------------------------
   0.2273E-02 (  2,  1, 46)  0.8750E-04 (  3,  3, 35)  0.3203E-05 (  4,  3, 33)  0.2783E-06 (  3,  2, 31)  0.1615E-07 (  4,  2, 31)

 NO OUTPUT CONTROL FOR STRESS PERIOD    1   TIME STEP  50


                                          ================================================
                                                         FROM TIME =  0.50000     TO   0.51000    

 
 SOLVING FOR HEAD 
 FLOW MODEL IS TRANSIENT
 FLOW MODEL CONTAINS CONSTANT-HEAD CELLS


 MAXIMUM STEPSIZE DURING WHICH ANY PARTICLE CANNOT MOVE MORE THAN ONE CELL
 =  1.138    (WHEN MIN. R.F.=1)  AT K=   3, I=   2, J=  30

 MAXIMUM STEPSIZE WHICH MEETS STABILITY CRITERION OF THE ADVECTION TERM
 (FOR PURE FINITE-DIFFERENCE OPTION, MIXELM=0) 
 = 0.9020    (WHEN MIN. R.F.=1)  AT K=   3, I=   2, J=  31


 TOTAL NUMBER OF POINT SOURCES/SINKS PRESENT IN THE FLOW MODEL =   240

 MAXIMUM STEPSIZE WHICH MEETS STABILITY CRITERION OF THE SINK & SOURCE TERM
 = 0.1000E+31(WHEN MIN. R.F.=1)  AT K=   0, I=   0, J=   0

 MAXIMUM STEPSIZE WHICH MEETS STABILITY CRITERION OF THE DISPERSION TERM
 = 0.4861E-01(WHEN MIN. R.F.=1)  AT K=   3, I=   2, J=  30


     1 CALLS TO GCG PACKAGE FOR TRANSPORT TIME STEP   1 IN FLOW TIME STEP  51 STRESS PERIOD   1
     5 TOTAL ITERATIONS
  MAXIMUM CONCENTRATION CHANGES FOR EACH ITERATION:
  MAX. CHANGE LAYER,ROW,COL MAX. CHANGE LAYER,ROW,COL MAX. CHANGE LAYER,ROW,COL MAX. CHANGE LAYER,ROW,COL MAX. CHANGE LAYER,ROW,COL
 ------------------------------------------------------------------------------------------------------------------------------------
   0.2249E-02 (  2,  1, 47)  0.8673E-04 (  3,  3, 35)  0.3169E-05 (  4,  3, 33)  0.2758E-06 (  3,  2, 31)  0.1601E-07 (  4,  2, 31)

 NO OUTPUT CONTROL FOR STRESS PERIOD    1   TIME STEP  51


                                          ================================================
                                                         FROM TIME =  0.51000     TO   0.52000    

 
 SOLVING FOR HEAD 
 FLOW MODEL IS TRANSIENT
 FLOW MODEL CONTAINS CONSTANT-HEAD CELLS


 MAXIMUM STEPSIZE DURING WHICH ANY PARTICLE CANNOT MOVE MORE THAN ONE CELL
 =  1.138    (WHEN MIN. R.F.=1)  AT K=   3, I=   2, J=  30

 MAXIMUM STEPSIZE WHICH MEETS STABILITY CRITERION OF THE ADVECTION TERM
 (FOR PURE FINITE-DIFFERENCE OPTION, MIXELM=0) 
 = 0.9023    (WHEN MIN. R.F.=1)  AT K=   3, I=   2, J=  31


 TOTAL NUMBER OF POINT SOURCES/SINKS PRESENT IN THE FLOW MODEL =   240

 MAXIMUM STEPSIZE WHICH MEETS STABILITY CRITERION OF THE SINK & SOURCE TERM
 = 0.1000E+31(WHEN MIN. R.F.=1)  AT K=   0, I=   0, J=   0

 MAXIMUM STEPSIZE WHICH MEETS STABILITY CRITERION OF THE DISPERSION TERM
 = 0.4863E-01(WHEN MIN. R.F.=1)  AT K=   3, I=   2, J=  30


     1 CALLS TO GCG PACKAGE FOR TRANSPORT TIME STEP   1 IN FLOW TIME STEP  52 STRESS PERIOD   1
     5 TOTAL ITERATIONS
  MAXIMUM CONCENTRATION CHANGES FOR EACH ITERATION:
  MAX. CHANGE LAYER,ROW,COL MAX. CHANGE LAYER,ROW,COL MAX. CHANGE LAYER,ROW,COL MAX. CHANGE LAYER,ROW,COL MAX. CHANGE LAYER,ROW,COL
 ------------------------------------------------------------------------------------------------------------------------------------
   0.2225E-02 (  2,  1, 47)  0.8597E-04 (  3,  3, 35)  0.3137E-05 (  4,  3, 33)  0.2734E-06 (  3,  2, 31)  0.1587E-07 (  4,  2, 31)

 NO OUTPUT CONTROL FOR STRESS PERIOD    1   TIME STEP  52


                                          ================================================
                                                         FROM TIME =  0.52000     TO   0.53000    

 
 SOLVING FOR HEAD 
 FLOW MODEL IS TRANSIENT
 FLOW MODEL CONTAINS CONSTANT-HEAD CELLS


 MAXIMUM STEPSIZE DURING WHICH ANY PARTICLE CANNOT MOVE MORE THAN ONE CELL
 =  1.138    (WHEN MIN. R.F.=1)  AT K=   3, I=   2, J=  30

 MAXIMUM STEPSIZE WHICH MEETS STABILITY CRITERION OF THE ADVECTION TERM
 (FOR PURE FINITE-DIFFERENCE OPTION, MIXELM=0) 
 = 0.9026    (WHEN MIN. R.F.=1)  AT K=   3, I=   2, J=  31


 TOTAL NUMBER OF POINT SOURCES/SINKS PRESENT IN THE FLOW MODEL =   240

 MAXIMUM STEPSIZE WHICH MEETS STABILITY CRITERION OF THE SINK & SOURCE TERM
 = 0.1000E+31(WHEN MIN. R.F.=1)  AT K=   0, I=   0, J=   0

 MAXIMUM STEPSIZE WHICH MEETS STABILITY CRITERION OF THE DISPERSION TERM
 = 0.4864E-01(WHEN MIN. R.F.=1)  AT K=   3, I=   2, J=  30


     1 CALLS TO GCG PACKAGE FOR TRANSPORT TIME STEP   1 IN FLOW TIME STEP  53 STRESS PERIOD   1
     5 TOTAL ITERATIONS
  MAXIMUM CONCENTRATION CHANGES FOR EACH ITERATION:
  MAX. CHANGE LAYER,ROW,COL MAX. CHANGE LAYER,ROW,COL MAX. CHANGE LAYER,ROW,COL MAX. CHANGE LAYER,ROW,COL MAX. CHANGE LAYER,ROW,COL
 ------------------------------------------------------------------------------------------------------------------------------------
   0.2202E-02 (  2,  1, 47)  0.8522E-04 (  3,  3, 35)  0.3105E-05 (  4,  3, 33)  0.2710E-06 (  3,  2, 31)  0.1574E-07 (  4,  2, 31)

 NO OUTPUT CONTROL FOR STRESS PERIOD    1   TIME STEP  53


                                          ================================================
                                                         FROM TIME =  0.53000     TO   0.54000    

 
 SOLVING FOR HEAD 
 FLOW MODEL IS TRANSIENT
 FLOW MODEL CONTAINS CONSTANT-HEAD CELLS


 MAXIMUM STEPSIZE DURING WHICH ANY PARTICLE CANNOT MOVE MORE THAN ONE CELL
 =  1.139    (WHEN MIN. R.F.=1)  AT K=   3, I=   2, J=  30

 MAXIMUM STEPSIZE WHICH MEETS STABILITY CRITERION OF THE ADVECTION TERM
 (FOR PURE FINITE-DIFFERENCE OPTION, MIXELM=0) 
 = 0.9029    (WHEN MIN. R.F.=1)  AT K=   3, I=   2, J=  31


 TOTAL NUMBER OF POINT SOURCES/SINKS PRESENT IN THE FLOW MODEL =   240

 MAXIMUM STEPSIZE WHICH MEETS STABILITY CRITERION OF THE SINK & SOURCE TERM
 = 0.1000E+31(WHEN MIN. R.F.=1)  AT K=   0, I=   0, J=   0

 MAXIMUM STEPSIZE WHICH MEETS STABILITY CRITERION OF THE DISPERSION TERM
 = 0.4866E-01(WHEN MIN. R.F.=1)  AT K=   3, I=   2, J=  30


     1 CALLS TO GCG PACKAGE FOR TRANSPORT TIME STEP   1 IN FLOW TIME STEP  54 STRESS PERIOD   1
     5 TOTAL ITERATIONS
  MAXIMUM CONCENTRATION CHANGES FOR EACH ITERATION:
  MAX. CHANGE LAYER,ROW,COL MAX. CHANGE LAYER,ROW,COL MAX. CHANGE LAYER,ROW,COL MAX. CHANGE LAYER,ROW,COL MAX. CHANGE LAYER,ROW,COL
 ------------------------------------------------------------------------------------------------------------------------------------
   0.2179E-02 (  2,  1, 47)  0.8449E-04 (  3,  3, 35)  0.3074E-05 (  4,  3, 33)  0.2687E-06 (  3,  2, 31)  0.1560E-07 (  4,  2, 31)

 NO OUTPUT CONTROL FOR STRESS PERIOD    1   TIME STEP  54


                                          ================================================
                                                         FROM TIME =  0.54000     TO   0.55000    

 
 SOLVING FOR HEAD 
 FLOW MODEL IS TRANSIENT
 FLOW MODEL CONTAINS CONSTANT-HEAD CELLS


 MAXIMUM STEPSIZE DURING WHICH ANY PARTICLE CANNOT MOVE MORE THAN ONE CELL
 =  1.139    (WHEN MIN. R.F.=1)  AT K=   3, I=   2, J=  30

 MAXIMUM STEPSIZE WHICH MEETS STABILITY CRITERION OF THE ADVECTION TERM
 (FOR PURE FINITE-DIFFERENCE OPTION, MIXELM=0) 
 = 0.9032    (WHEN MIN. R.F.=1)  AT K=   3, I=   2, J=  31


 TOTAL NUMBER OF POINT SOURCES/SINKS PRESENT IN THE FLOW MODEL =   240

 MAXIMUM STEPSIZE WHICH MEETS STABILITY CRITERION OF THE SINK & SOURCE TERM
 = 0.1000E+31(WHEN MIN. R.F.=1)  AT K=   0, I=   0, J=   0

 MAXIMUM STEPSIZE WHICH MEETS STABILITY CRITERION OF THE DISPERSION TERM
 = 0.4867E-01(WHEN MIN. R.F.=1)  AT K=   3, I=   2, J=  30


     1 CALLS TO GCG PACKAGE FOR TRANSPORT TIME STEP   1 IN FLOW TIME STEP  55 STRESS PERIOD   1
     5 TOTAL ITERATIONS
  MAXIMUM CONCENTRATION CHANGES FOR EACH ITERATION:
  MAX. CHANGE LAYER,ROW,COL MAX. CHANGE LAYER,ROW,COL MAX. CHANGE LAYER,ROW,COL MAX. CHANGE LAYER,ROW,COL MAX. CHANGE LAYER,ROW,COL
 ------------------------------------------------------------------------------------------------------------------------------------
   0.2156E-02 (  2,  1, 47)  0.8376E-04 (  3,  3, 35)  0.3043E-05 (  4,  3, 33)  0.2664E-06 (  3,  2, 31)  0.1547E-07 (  4,  2, 31)

 NO OUTPUT CONTROL FOR STRESS PERIOD    1   TIME STEP  55


                                          ================================================
                                                         FROM TIME =  0.55000     TO   0.56000    

 
 SOLVING FOR HEAD 
 FLOW MODEL IS TRANSIENT
 FLOW MODEL CONTAINS CONSTANT-HEAD CELLS


 MAXIMUM STEPSIZE DURING WHICH ANY PARTICLE CANNOT MOVE MORE THAN ONE CELL
 =  1.140    (WHEN MIN. R.F.=1)  AT K=   3, I=   2, J=  30

 MAXIMUM STEPSIZE WHICH MEETS STABILITY CRITERION OF THE ADVECTION TERM
 (FOR PURE FINITE-DIFFERENCE OPTION, MIXELM=0) 
 = 0.9035    (WHEN MIN. R.F.=1)  AT K=   3, I=   2, J=  31


 TOTAL NUMBER OF POINT SOURCES/SINKS PRESENT IN THE FLOW MODEL =   240

 MAXIMUM STEPSIZE WHICH MEETS STABILITY CRITERION OF THE SINK & SOURCE TERM
 = 0.1000E+31(WHEN MIN. R.F.=1)  AT K=   0, I=   0, J=   0

 MAXIMUM STEPSIZE WHICH MEETS STABILITY CRITERION OF THE DISPERSION TERM
 = 0.4868E-01(WHEN MIN. R.F.=1)  AT K=   3, I=   2, J=  30


     1 CALLS TO GCG PACKAGE FOR TRANSPORT TIME STEP   1 IN FLOW TIME STEP  56 STRESS PERIOD   1
     5 TOTAL ITERATIONS
  MAXIMUM CONCENTRATION CHANGES FOR EACH ITERATION:
  MAX. CHANGE LAYER,ROW,COL MAX. CHANGE LAYER,ROW,COL MAX. CHANGE LAYER,ROW,COL MAX. CHANGE LAYER,ROW,COL MAX. CHANGE LAYER,ROW,COL
 ------------------------------------------------------------------------------------------------------------------------------------
   0.2134E-02 (  2,  1, 47)  0.8305E-04 (  3,  3, 35)  0.3013E-05 (  4,  3, 33)  0.2641E-06 (  3,  2, 31)  0.1534E-07 (  4,  2, 31)

 NO OUTPUT CONTROL FOR STRESS PERIOD    1   TIME STEP  56


                                          ================================================
                                                         FROM TIME =  0.56000     TO   0.57000    

 
 SOLVING FOR HEAD 
 FLOW MODEL IS TRANSIENT
 FLOW MODEL CONTAINS CONSTANT-HEAD CELLS


 MAXIMUM STEPSIZE DURING WHICH ANY PARTICLE CANNOT MOVE MORE THAN ONE CELL
 =  1.140    (WHEN MIN. R.F.=1)  AT K=   3, I=   2, J=  30

 MAXIMUM STEPSIZE WHICH MEETS STABILITY CRITERION OF THE ADVECTION TERM
 (FOR PURE FINITE-DIFFERENCE OPTION, MIXELM=0) 
 = 0.9038    (WHEN MIN. R.F.=1)  AT K=   3, I=   2, J=  31


 TOTAL NUMBER OF POINT SOURCES/SINKS PRESENT IN THE FLOW MODEL =   240

 MAXIMUM STEPSIZE WHICH MEETS STABILITY CRITERION OF THE SINK & SOURCE TERM
 = 0.1000E+31(WHEN MIN. R.F.=1)  AT K=   0, I=   0, J=   0

 MAXIMUM STEPSIZE WHICH MEETS STABILITY CRITERION OF THE DISPERSION TERM
 = 0.4870E-01(WHEN MIN. R.F.=1)  AT K=   3, I=   2, J=  30


     1 CALLS TO GCG PACKAGE FOR TRANSPORT TIME STEP   1 IN FLOW TIME STEP  57 STRESS PERIOD   1
     5 TOTAL ITERATIONS
  MAXIMUM CONCENTRATION CHANGES FOR EACH ITERATION:
  MAX. CHANGE LAYER,ROW,COL MAX. CHANGE LAYER,ROW,COL MAX. CHANGE LAYER,ROW,COL MAX. CHANGE LAYER,ROW,COL MAX. CHANGE LAYER,ROW,COL
 ------------------------------------------------------------------------------------------------------------------------------------
   0.2112E-02 (  2,  1, 47)  0.8235E-04 (  3,  3, 35)  0.2984E-05 (  4,  3, 33)  0.2619E-06 (  3,  2, 31)  0.1522E-07 (  4,  2, 31)

 NO OUTPUT CONTROL FOR STRESS PERIOD    1   TIME STEP  57


                                          ================================================
                                                         FROM TIME =  0.57000     TO   0.58000    

 
 SOLVING FOR HEAD 
 FLOW MODEL IS TRANSIENT
 FLOW MODEL CONTAINS CONSTANT-HEAD CELLS


 MAXIMUM STEPSIZE DURING WHICH ANY PARTICLE CANNOT MOVE MORE THAN ONE CELL
 =  1.140    (WHEN MIN. R.F.=1)  AT K=   3, I=   2, J=  30

 MAXIMUM STEPSIZE WHICH MEETS STABILITY CRITERION OF THE ADVECTION TERM
 (FOR PURE FINITE-DIFFERENCE OPTION, MIXELM=0) 
 = 0.9041    (WHEN MIN. R.F.=1)  AT K=   3, I=   2, J=  31


 TOTAL NUMBER OF POINT SOURCES/SINKS PRESENT IN THE FLOW MODEL =   240

 MAXIMUM STEPSIZE WHICH MEETS STABILITY CRITERION OF THE SINK & SOURCE TERM
 = 0.1000E+31(WHEN MIN. R.F.=1)  AT K=   0, I=   0, J=   0

 MAXIMUM STEPSIZE WHICH MEETS STABILITY CRITERION OF THE DISPERSION TERM
 = 0.4871E-01(WHEN MIN. R.F.=1)  AT K=   3, I=   2, J=  30


     1 CALLS TO GCG PACKAGE FOR TRANSPORT TIME STEP   1 IN FLOW TIME STEP  58 STRESS PERIOD   1
     5 TOTAL ITERATIONS
  MAXIMUM CONCENTRATION CHANGES FOR EACH ITERATION:
  MAX. CHANGE LAYER,ROW,COL MAX. CHANGE LAYER,ROW,COL MAX. CHANGE LAYER,ROW,COL MAX. CHANGE LAYER,ROW,COL MAX. CHANGE LAYER,ROW,COL
 ------------------------------------------------------------------------------------------------------------------------------------
   0.2091E-02 (  2,  1, 47)  0.8166E-04 (  3,  3, 35)  0.2955E-05 (  4,  3, 33)  0.2597E-06 (  3,  2, 31)  0.1509E-07 (  4,  2, 31)

 NO OUTPUT CONTROL FOR STRESS PERIOD    1   TIME STEP  58


                                          ================================================
                                                         FROM TIME =  0.58000     TO   0.59000    

 
 SOLVING FOR HEAD 
 FLOW MODEL IS TRANSIENT
 FLOW MODEL CONTAINS CONSTANT-HEAD CELLS


 MAXIMUM STEPSIZE DURING WHICH ANY PARTICLE CANNOT MOVE MORE THAN ONE CELL
 =  1.141    (WHEN MIN. R.F.=1)  AT K=   3, I=   2, J=  30

 MAXIMUM STEPSIZE WHICH MEETS STABILITY CRITERION OF THE ADVECTION TERM
 (FOR PURE FINITE-DIFFERENCE OPTION, MIXELM=0) 
 = 0.9044    (WHEN MIN. R.F.=1)  AT K=   3, I=   2, J=  31


 TOTAL NUMBER OF POINT SOURCES/SINKS PRESENT IN THE FLOW MODEL =   240

 MAXIMUM STEPSIZE WHICH MEETS STABILITY CRITERION OF THE SINK & SOURCE TERM
 = 0.1000E+31(WHEN MIN. R.F.=1)  AT K=   0, I=   0, J=   0

 MAXIMUM STEPSIZE WHICH MEETS STABILITY CRITERION OF THE DISPERSION TERM
 = 0.4873E-01(WHEN MIN. R.F.=1)  AT K=   3, I=   2, J=  30


     1 CALLS TO GCG PACKAGE FOR TRANSPORT TIME STEP   1 IN FLOW TIME STEP  59 STRESS PERIOD   1
     5 TOTAL ITERATIONS
  MAXIMUM CONCENTRATION CHANGES FOR EACH ITERATION:
  MAX. CHANGE LAYER,ROW,COL MAX. CHANGE LAYER,ROW,COL MAX. CHANGE LAYER,ROW,COL MAX. CHANGE LAYER,ROW,COL MAX. CHANGE LAYER,ROW,COL
 ------------------------------------------------------------------------------------------------------------------------------------
   0.2070E-02 (  2,  1, 47)  0.8098E-04 (  3,  3, 35)  0.2927E-05 (  4,  3, 33)  0.2575E-06 (  3,  2, 31)  0.1497E-07 (  4,  2, 31)

 NO OUTPUT CONTROL FOR STRESS PERIOD    1   TIME STEP  59


                                          ================================================
                                                         FROM TIME =  0.59000     TO   0.60000    

 
 SOLVING FOR HEAD 
 FLOW MODEL IS TRANSIENT
 FLOW MODEL CONTAINS CONSTANT-HEAD CELLS


 MAXIMUM STEPSIZE DURING WHICH ANY PARTICLE CANNOT MOVE MORE THAN ONE CELL
 =  1.141    (WHEN MIN. R.F.=1)  AT K=   3, I=   2, J=  30

 MAXIMUM STEPSIZE WHICH MEETS STABILITY CRITERION OF THE ADVECTION TERM
 (FOR PURE FINITE-DIFFERENCE OPTION, MIXELM=0) 
 = 0.9047    (WHEN MIN. R.F.=1)  AT K=   3, I=   2, J=  31


 TOTAL NUMBER OF POINT SOURCES/SINKS PRESENT IN THE FLOW MODEL =   240

 MAXIMUM STEPSIZE WHICH MEETS STABILITY CRITERION OF THE SINK & SOURCE TERM
 = 0.1000E+31(WHEN MIN. R.F.=1)  AT K=   0, I=   0, J=   0

 MAXIMUM STEPSIZE WHICH MEETS STABILITY CRITERION OF THE DISPERSION TERM
 = 0.4874E-01(WHEN MIN. R.F.=1)  AT K=   3, I=   2, J=  30


     1 CALLS TO GCG PACKAGE FOR TRANSPORT TIME STEP   1 IN FLOW TIME STEP  60 STRESS PERIOD   1
     5 TOTAL ITERATIONS
  MAXIMUM CONCENTRATION CHANGES FOR EACH ITERATION:
  MAX. CHANGE LAYER,ROW,COL MAX. CHANGE LAYER,ROW,COL MAX. CHANGE LAYER,ROW,COL MAX. CHANGE LAYER,ROW,COL MAX. CHANGE LAYER,ROW,COL
 ------------------------------------------------------------------------------------------------------------------------------------
   0.2050E-02 (  2,  1, 49)  0.8031E-04 (  3,  3, 35)  0.2900E-05 (  4,  3, 33)  0.2554E-06 (  3,  2, 31)  0.1485E-07 (  4,  2, 31)

 NO OUTPUT CONTROL FOR STRESS PERIOD    1   TIME STEP  60


                                          ================================================
                                                         FROM TIME =  0.60000     TO   0.61000    

 
 SOLVING FOR HEAD 
 FLOW MODEL IS TRANSIENT
 FLOW MODEL CONTAINS CONSTANT-HEAD CELLS


 MAXIMUM STEPSIZE DURING WHICH ANY PARTICLE CANNOT MOVE MORE THAN ONE CELL
 =  1.141    (WHEN MIN. R.F.=1)  AT K=   3, I=   2, J=  30

 MAXIMUM STEPSIZE WHICH MEETS STABILITY CRITERION OF THE ADVECTION TERM
 (FOR PURE FINITE-DIFFERENCE OPTION, MIXELM=0) 
 = 0.9049    (WHEN MIN. R.F.=1)  AT K=   3, I=   2, J=  31


 TOTAL NUMBER OF POINT SOURCES/SINKS PRESENT IN THE FLOW MODEL =   240

 MAXIMUM STEPSIZE WHICH MEETS STABILITY CRITERION OF THE SINK & SOURCE TERM
 = 0.1000E+31(WHEN MIN. R.F.=1)  AT K=   0, I=   0, J=   0

 MAXIMUM STEPSIZE WHICH MEETS STABILITY CRITERION OF THE DISPERSION TERM
 = 0.4876E-01(WHEN MIN. R.F.=1)  AT K=   3, I=   2, J=  30


     1 CALLS TO GCG PACKAGE FOR TRANSPORT TIME STEP   1 IN FLOW TIME STEP  61 STRESS PERIOD   1
     5 TOTAL ITERATIONS
  MAXIMUM CONCENTRATION CHANGES FOR EACH ITERATION:
  MAX. CHANGE LAYER,ROW,COL MAX. CHANGE LAYER,ROW,COL MAX. CHANGE LAYER,ROW,COL MAX. CHANGE LAYER,ROW,COL MAX. CHANGE LAYER,ROW,COL
 ------------------------------------------------------------------------------------------------------------------------------------
   0.2037E-02 (  2,  1, 60)  0.7965E-04 (  3,  3, 35)  0.2873E-05 (  4,  3, 33)  0.2534E-06 (  3,  2, 31)  0.1473E-07 (  4,  2, 31)

 NO OUTPUT CONTROL FOR STRESS PERIOD    1   TIME STEP  61


                                          ================================================
                                                         FROM TIME =  0.61000     TO   0.62000    

 
 SOLVING FOR HEAD 
 FLOW MODEL IS TRANSIENT
 FLOW MODEL CONTAINS CONSTANT-HEAD CELLS


 MAXIMUM STEPSIZE DURING WHICH ANY PARTICLE CANNOT MOVE MORE THAN ONE CELL
 =  1.142    (WHEN MIN. R.F.=1)  AT K=   3, I=   2, J=  30

 MAXIMUM STEPSIZE WHICH MEETS STABILITY CRITERION OF THE ADVECTION TERM
 (FOR PURE FINITE-DIFFERENCE OPTION, MIXELM=0) 
 = 0.9052    (WHEN MIN. R.F.=1)  AT K=   3, I=   2, J=  31


 TOTAL NUMBER OF POINT SOURCES/SINKS PRESENT IN THE FLOW MODEL =   240

 MAXIMUM STEPSIZE WHICH MEETS STABILITY CRITERION OF THE SINK & SOURCE TERM
 = 0.1000E+31(WHEN MIN. R.F.=1)  AT K=   0, I=   0, J=   0

 MAXIMUM STEPSIZE WHICH MEETS STABILITY CRITERION OF THE DISPERSION TERM
 = 0.4877E-01(WHEN MIN. R.F.=1)  AT K=   3, I=   2, J=  30


     1 CALLS TO GCG PACKAGE FOR TRANSPORT TIME STEP   1 IN FLOW TIME STEP  62 STRESS PERIOD   1
     5 TOTAL ITERATIONS
  MAXIMUM CONCENTRATION CHANGES FOR EACH ITERATION:
  MAX. CHANGE LAYER,ROW,COL MAX. CHANGE LAYER,ROW,COL MAX. CHANGE LAYER,ROW,COL MAX. CHANGE LAYER,ROW,COL MAX. CHANGE LAYER,ROW,COL
 ------------------------------------------------------------------------------------------------------------------------------------
   0.2028E-02 (  2,  1, 60)  0.7900E-04 (  3,  3, 35)  0.2847E-05 (  4,  2, 32)  0.2513E-06 (  3,  2, 31)  0.1462E-07 (  4,  2, 31)

 NO OUTPUT CONTROL FOR STRESS PERIOD    1   TIME STEP  62


                                          ================================================
                                                         FROM TIME =  0.62000     TO   0.63000    

 
 SOLVING FOR HEAD 
 FLOW MODEL IS TRANSIENT
 FLOW MODEL CONTAINS CONSTANT-HEAD CELLS


 MAXIMUM STEPSIZE DURING WHICH ANY PARTICLE CANNOT MOVE MORE THAN ONE CELL
 =  1.142    (WHEN MIN. R.F.=1)  AT K=   3, I=   2, J=  30

 MAXIMUM STEPSIZE WHICH MEETS STABILITY CRITERION OF THE ADVECTION TERM
 (FOR PURE FINITE-DIFFERENCE OPTION, MIXELM=0) 
 = 0.9055    (WHEN MIN. R.F.=1)  AT K=   3, I=   2, J=  31


 TOTAL NUMBER OF POINT SOURCES/SINKS PRESENT IN THE FLOW MODEL =   240

 MAXIMUM STEPSIZE WHICH MEETS STABILITY CRITERION OF THE SINK & SOURCE TERM
 = 0.1000E+31(WHEN MIN. R.F.=1)  AT K=   0, I=   0, J=   0

 MAXIMUM STEPSIZE WHICH MEETS STABILITY CRITERION OF THE DISPERSION TERM
 = 0.4879E-01(WHEN MIN. R.F.=1)  AT K=   3, I=   2, J=  30


     1 CALLS TO GCG PACKAGE FOR TRANSPORT TIME STEP   1 IN FLOW TIME STEP  63 STRESS PERIOD   1
     5 TOTAL ITERATIONS
  MAXIMUM CONCENTRATION CHANGES FOR EACH ITERATION:
  MAX. CHANGE LAYER,ROW,COL MAX. CHANGE LAYER,ROW,COL MAX. CHANGE LAYER,ROW,COL MAX. CHANGE LAYER,ROW,COL MAX. CHANGE LAYER,ROW,COL
 ------------------------------------------------------------------------------------------------------------------------------------
   0.2018E-02 (  2,  1, 60)  0.7836E-04 (  3,  3, 35)  0.2821E-05 (  4,  2, 32)  0.2493E-06 (  3,  2, 31)  0.1450E-07 (  4,  2, 31)

 NO OUTPUT CONTROL FOR STRESS PERIOD    1   TIME STEP  63


                                          ================================================
                                                         FROM TIME =  0.63000     TO   0.64000    

 
 SOLVING FOR HEAD 
 FLOW MODEL IS TRANSIENT
 FLOW MODEL CONTAINS CONSTANT-HEAD CELLS


 MAXIMUM STEPSIZE DURING WHICH ANY PARTICLE CANNOT MOVE MORE THAN ONE CELL
 =  1.142    (WHEN MIN. R.F.=1)  AT K=   3, I=   2, J=  30

 MAXIMUM STEPSIZE WHICH MEETS STABILITY CRITERION OF THE ADVECTION TERM
 (FOR PURE FINITE-DIFFERENCE OPTION, MIXELM=0) 
 = 0.9058    (WHEN MIN. R.F.=1)  AT K=   3, I=   2, J=  31


 TOTAL NUMBER OF POINT SOURCES/SINKS PRESENT IN THE FLOW MODEL =   240

 MAXIMUM STEPSIZE WHICH MEETS STABILITY CRITERION OF THE SINK & SOURCE TERM
 = 0.1000E+31(WHEN MIN. R.F.=1)  AT K=   0, I=   0, J=   0

 MAXIMUM STEPSIZE WHICH MEETS STABILITY CRITERION OF THE DISPERSION TERM
 = 0.4880E-01(WHEN MIN. R.F.=1)  AT K=   3, I=   2, J=  30


     1 CALLS TO GCG PACKAGE FOR TRANSPORT TIME STEP   1 IN FLOW TIME STEP  64 STRESS PERIOD   1
     5 TOTAL ITERATIONS
  MAXIMUM CONCENTRATION CHANGES FOR EACH ITERATION:
  MAX. CHANGE LAYER,ROW,COL MAX. CHANGE LAYER,ROW,COL MAX. CHANGE LAYER,ROW,COL MAX. CHANGE LAYER,ROW,COL MAX. CHANGE LAYER,ROW,COL
 ------------------------------------------------------------------------------------------------------------------------------------
   0.2009E-02 (  2,  1, 60)  0.7773E-04 (  3,  3, 35)  0.2796E-05 (  4,  2, 32)  0.2474E-06 (  3,  2, 31)  0.1439E-07 (  4,  2, 31)

 NO OUTPUT CONTROL FOR STRESS PERIOD    1   TIME STEP  64


                                          ================================================
                                                         FROM TIME =  0.64000     TO   0.65000    

 
 SOLVING FOR HEAD 
 FLOW MODEL IS TRANSIENT
 FLOW MODEL CONTAINS CONSTANT-HEAD CELLS


 MAXIMUM STEPSIZE DURING WHICH ANY PARTICLE CANNOT MOVE MORE THAN ONE CELL
 =  1.143    (WHEN MIN. R.F.=1)  AT K=   3, I=   2, J=  30

 MAXIMUM STEPSIZE WHICH MEETS STABILITY CRITERION OF THE ADVECTION TERM
 (FOR PURE FINITE-DIFFERENCE OPTION, MIXELM=0) 
 = 0.9061    (WHEN MIN. R.F.=1)  AT K=   3, I=   2, J=  31


 TOTAL NUMBER OF POINT SOURCES/SINKS PRESENT IN THE FLOW MODEL =   240

 MAXIMUM STEPSIZE WHICH MEETS STABILITY CRITERION OF THE SINK & SOURCE TERM
 = 0.1000E+31(WHEN MIN. R.F.=1)  AT K=   0, I=   0, J=   0

 MAXIMUM STEPSIZE WHICH MEETS STABILITY CRITERION OF THE DISPERSION TERM
 = 0.4882E-01(WHEN MIN. R.F.=1)  AT K=   3, I=   2, J=  30


     1 CALLS TO GCG PACKAGE FOR TRANSPORT TIME STEP   1 IN FLOW TIME STEP  65 STRESS PERIOD   1
     5 TOTAL ITERATIONS
  MAXIMUM CONCENTRATION CHANGES FOR EACH ITERATION:
  MAX. CHANGE LAYER,ROW,COL MAX. CHANGE LAYER,ROW,COL MAX. CHANGE LAYER,ROW,COL MAX. CHANGE LAYER,ROW,COL MAX. CHANGE LAYER,ROW,COL
 ------------------------------------------------------------------------------------------------------------------------------------
   0.2000E-02 (  2,  1, 60)  0.7711E-04 (  3,  3, 35)  0.2772E-05 (  4,  2, 32)  0.2454E-06 (  3,  2, 31)  0.1428E-07 (  4,  2, 31)

 NO OUTPUT CONTROL FOR STRESS PERIOD    1   TIME STEP  65


                                          ================================================
                                                         FROM TIME =  0.65000     TO   0.66000    

 
 SOLVING FOR HEAD 
 FLOW MODEL IS TRANSIENT
 FLOW MODEL CONTAINS CONSTANT-HEAD CELLS


 MAXIMUM STEPSIZE DURING WHICH ANY PARTICLE CANNOT MOVE MORE THAN ONE CELL
 =  1.143    (WHEN MIN. R.F.=1)  AT K=   3, I=   2, J=  30

 MAXIMUM STEPSIZE WHICH MEETS STABILITY CRITERION OF THE ADVECTION TERM
 (FOR PURE FINITE-DIFFERENCE OPTION, MIXELM=0) 
 = 0.9063    (WHEN MIN. R.F.=1)  AT K=   3, I=   2, J=  31


 TOTAL NUMBER OF POINT SOURCES/SINKS PRESENT IN THE FLOW MODEL =   240

 MAXIMUM STEPSIZE WHICH MEETS STABILITY CRITERION OF THE SINK & SOURCE TERM
 = 0.1000E+31(WHEN MIN. R.F.=1)  AT K=   0, I=   0, J=   0

 MAXIMUM STEPSIZE WHICH MEETS STABILITY CRITERION OF THE DISPERSION TERM
 = 0.4883E-01(WHEN MIN. R.F.=1)  AT K=   3, I=   2, J=  30


     1 CALLS TO GCG PACKAGE FOR TRANSPORT TIME STEP   1 IN FLOW TIME STEP  66 STRESS PERIOD   1
     5 TOTAL ITERATIONS
  MAXIMUM CONCENTRATION CHANGES FOR EACH ITERATION:
  MAX. CHANGE LAYER,ROW,COL MAX. CHANGE LAYER,ROW,COL MAX. CHANGE LAYER,ROW,COL MAX. CHANGE LAYER,ROW,COL MAX. CHANGE LAYER,ROW,COL
 ------------------------------------------------------------------------------------------------------------------------------------
   0.1991E-02 (  2,  1, 60)  0.7650E-04 (  3,  3, 35)  0.2748E-05 (  4,  2, 32)  0.2436E-06 (  3,  2, 31)  0.1417E-07 (  4,  2, 31)

 NO OUTPUT CONTROL FOR STRESS PERIOD    1   TIME STEP  66


                                          ================================================
                                                         FROM TIME =  0.66000     TO   0.67000    

 
 SOLVING FOR HEAD 
 FLOW MODEL IS TRANSIENT
 FLOW MODEL CONTAINS CONSTANT-HEAD CELLS


 MAXIMUM STEPSIZE DURING WHICH ANY PARTICLE CANNOT MOVE MORE THAN ONE CELL
 =  1.143    (WHEN MIN. R.F.=1)  AT K=   3, I=   2, J=  30

 MAXIMUM STEPSIZE WHICH MEETS STABILITY CRITERION OF THE ADVECTION TERM
 (FOR PURE FINITE-DIFFERENCE OPTION, MIXELM=0) 
 = 0.9066    (WHEN MIN. R.F.=1)  AT K=   3, I=   2, J=  31


 TOTAL NUMBER OF POINT SOURCES/SINKS PRESENT IN THE FLOW MODEL =   240

 MAXIMUM STEPSIZE WHICH MEETS STABILITY CRITERION OF THE SINK & SOURCE TERM
 = 0.1000E+31(WHEN MIN. R.F.=1)  AT K=   0, I=   0, J=   0

 MAXIMUM STEPSIZE WHICH MEETS STABILITY CRITERION OF THE DISPERSION TERM
 = 0.4884E-01(WHEN MIN. R.F.=1)  AT K=   3, I=   2, J=  30


     1 CALLS TO GCG PACKAGE FOR TRANSPORT TIME STEP   1 IN FLOW TIME STEP  67 STRESS PERIOD   1
     5 TOTAL ITERATIONS
  MAXIMUM CONCENTRATION CHANGES FOR EACH ITERATION:
  MAX. CHANGE LAYER,ROW,COL MAX. CHANGE LAYER,ROW,COL MAX. CHANGE LAYER,ROW,COL MAX. CHANGE LAYER,ROW,COL MAX. CHANGE LAYER,ROW,COL
 ------------------------------------------------------------------------------------------------------------------------------------
   0.1982E-02 (  2,  1, 60)  0.7590E-04 (  3,  3, 35)  0.2724E-05 (  4,  2, 32)  0.2417E-06 (  3,  2, 31)  0.1406E-07 (  4,  2, 31)

 NO OUTPUT CONTROL FOR STRESS PERIOD    1   TIME STEP  67


                                          ================================================
                                                         FROM TIME =  0.67000     TO   0.68000    

 
 SOLVING FOR HEAD 
 FLOW MODEL IS TRANSIENT
 FLOW MODEL CONTAINS CONSTANT-HEAD CELLS


 MAXIMUM STEPSIZE DURING WHICH ANY PARTICLE CANNOT MOVE MORE THAN ONE CELL
 =  1.144    (WHEN MIN. R.F.=1)  AT K=   3, I=   2, J=  30

 MAXIMUM STEPSIZE WHICH MEETS STABILITY CRITERION OF THE ADVECTION TERM
 (FOR PURE FINITE-DIFFERENCE OPTION, MIXELM=0) 
 = 0.9069    (WHEN MIN. R.F.=1)  AT K=   3, I=   2, J=  31


 TOTAL NUMBER OF POINT SOURCES/SINKS PRESENT IN THE FLOW MODEL =   240

 MAXIMUM STEPSIZE WHICH MEETS STABILITY CRITERION OF THE SINK & SOURCE TERM
 = 0.1000E+31(WHEN MIN. R.F.=1)  AT K=   0, I=   0, J=   0

 MAXIMUM STEPSIZE WHICH MEETS STABILITY CRITERION OF THE DISPERSION TERM
 = 0.4886E-01(WHEN MIN. R.F.=1)  AT K=   3, I=   2, J=  30


     1 CALLS TO GCG PACKAGE FOR TRANSPORT TIME STEP   1 IN FLOW TIME STEP  68 STRESS PERIOD   1
     5 TOTAL ITERATIONS
  MAXIMUM CONCENTRATION CHANGES FOR EACH ITERATION:
  MAX. CHANGE LAYER,ROW,COL MAX. CHANGE LAYER,ROW,COL MAX. CHANGE LAYER,ROW,COL MAX. CHANGE LAYER,ROW,COL MAX. CHANGE LAYER,ROW,COL
 ------------------------------------------------------------------------------------------------------------------------------------
   0.1973E-02 (  2,  1, 60)  0.7530E-04 (  3,  3, 35)  0.2701E-05 (  4,  2, 32)  0.2399E-06 (  3,  2, 31)  0.1396E-07 (  4,  2, 31)

 NO OUTPUT CONTROL FOR STRESS PERIOD    1   TIME STEP  68


                                          ================================================
                                                         FROM TIME =  0.68000     TO   0.69000    

 
 SOLVING FOR HEAD 
 FLOW MODEL IS TRANSIENT
 FLOW MODEL CONTAINS CONSTANT-HEAD CELLS


 MAXIMUM STEPSIZE DURING WHICH ANY PARTICLE CANNOT MOVE MORE THAN ONE CELL
 =  1.144    (WHEN MIN. R.F.=1)  AT K=   3, I=   2, J=  30

 MAXIMUM STEPSIZE WHICH MEETS STABILITY CRITERION OF THE ADVECTION TERM
 (FOR PURE FINITE-DIFFERENCE OPTION, MIXELM=0) 
 = 0.9071    (WHEN MIN. R.F.=1)  AT K=   3, I=   2, J=  31


 TOTAL NUMBER OF POINT SOURCES/SINKS PRESENT IN THE FLOW MODEL =   240

 MAXIMUM STEPSIZE WHICH MEETS STABILITY CRITERION OF THE SINK & SOURCE TERM
 = 0.1000E+31(WHEN MIN. R.F.=1)  AT K=   0, I=   0, J=   0

 MAXIMUM STEPSIZE WHICH MEETS STABILITY CRITERION OF THE DISPERSION TERM
 = 0.4887E-01(WHEN MIN. R.F.=1)  AT K=   3, I=   2, J=  30


     1 CALLS TO GCG PACKAGE FOR TRANSPORT TIME STEP   1 IN FLOW TIME STEP  69 STRESS PERIOD   1
     5 TOTAL ITERATIONS
  MAXIMUM CONCENTRATION CHANGES FOR EACH ITERATION:
  MAX. CHANGE LAYER,ROW,COL MAX. CHANGE LAYER,ROW,COL MAX. CHANGE LAYER,ROW,COL MAX. CHANGE LAYER,ROW,COL MAX. CHANGE LAYER,ROW,COL
 ------------------------------------------------------------------------------------------------------------------------------------
   0.1963E-02 (  2,  1, 60)  0.7472E-04 (  3,  3, 35)  0.2678E-05 (  4,  2, 32)  0.2381E-06 (  3,  2, 31)  0.1385E-07 (  4,  2, 31)

 NO OUTPUT CONTROL FOR STRESS PERIOD    1   TIME STEP  69


                                          ================================================
                                                         FROM TIME =  0.69000     TO   0.70000    

 
 SOLVING FOR HEAD 
 FLOW MODEL IS TRANSIENT
 FLOW MODEL CONTAINS CONSTANT-HEAD CELLS


 MAXIMUM STEPSIZE DURING WHICH ANY PARTICLE CANNOT MOVE MORE THAN ONE CELL
 =  1.144    (WHEN MIN. R.F.=1)  AT K=   3, I=   2, J=  30

 MAXIMUM STEPSIZE WHICH MEETS STABILITY CRITERION OF THE ADVECTION TERM
 (FOR PURE FINITE-DIFFERENCE OPTION, MIXELM=0) 
 = 0.9074    (WHEN MIN. R.F.=1)  AT K=   3, I=   2, J=  31


 TOTAL NUMBER OF POINT SOURCES/SINKS PRESENT IN THE FLOW MODEL =   240

 MAXIMUM STEPSIZE WHICH MEETS STABILITY CRITERION OF THE SINK & SOURCE TERM
 = 0.1000E+31(WHEN MIN. R.F.=1)  AT K=   0, I=   0, J=   0

 MAXIMUM STEPSIZE WHICH MEETS STABILITY CRITERION OF THE DISPERSION TERM
 = 0.4889E-01(WHEN MIN. R.F.=1)  AT K=   3, I=   2, J=  30


     1 CALLS TO GCG PACKAGE FOR TRANSPORT TIME STEP   1 IN FLOW TIME STEP  70 STRESS PERIOD   1
     5 TOTAL ITERATIONS
  MAXIMUM CONCENTRATION CHANGES FOR EACH ITERATION:
  MAX. CHANGE LAYER,ROW,COL MAX. CHANGE LAYER,ROW,COL MAX. CHANGE LAYER,ROW,COL MAX. CHANGE LAYER,ROW,COL MAX. CHANGE LAYER,ROW,COL
 ------------------------------------------------------------------------------------------------------------------------------------
   0.1954E-02 (  2,  1, 60)  0.7415E-04 (  3,  3, 35)  0.2656E-05 (  4,  2, 32)  0.2363E-06 (  3,  2, 31)  0.1375E-07 (  4,  2, 31)

 NO OUTPUT CONTROL FOR STRESS PERIOD    1   TIME STEP  70


                                          ================================================
                                                         FROM TIME =  0.70000     TO   0.71000    

 
 SOLVING FOR HEAD 
 FLOW MODEL IS TRANSIENT
 FLOW MODEL CONTAINS CONSTANT-HEAD CELLS


 MAXIMUM STEPSIZE DURING WHICH ANY PARTICLE CANNOT MOVE MORE THAN ONE CELL
 =  1.145    (WHEN MIN. R.F.=1)  AT K=   3, I=   2, J=  30

 MAXIMUM STEPSIZE WHICH MEETS STABILITY CRITERION OF THE ADVECTION TERM
 (FOR PURE FINITE-DIFFERENCE OPTION, MIXELM=0) 
 = 0.9077    (WHEN MIN. R.F.=1)  AT K=   3, I=   2, J=  31


 TOTAL NUMBER OF POINT SOURCES/SINKS PRESENT IN THE FLOW MODEL =   240

 MAXIMUM STEPSIZE WHICH MEETS STABILITY CRITERION OF THE SINK & SOURCE TERM
 = 0.1000E+31(WHEN MIN. R.F.=1)  AT K=   0, I=   0, J=   0

 MAXIMUM STEPSIZE WHICH MEETS STABILITY CRITERION OF THE DISPERSION TERM
 = 0.4890E-01(WHEN MIN. R.F.=1)  AT K=   3, I=   2, J=  30


     1 CALLS TO GCG PACKAGE FOR TRANSPORT TIME STEP   1 IN FLOW TIME STEP  71 STRESS PERIOD   1
     5 TOTAL ITERATIONS
  MAXIMUM CONCENTRATION CHANGES FOR EACH ITERATION:
  MAX. CHANGE LAYER,ROW,COL MAX. CHANGE LAYER,ROW,COL MAX. CHANGE LAYER,ROW,COL MAX. CHANGE LAYER,ROW,COL MAX. CHANGE LAYER,ROW,COL
 ------------------------------------------------------------------------------------------------------------------------------------
   0.1945E-02 (  2,  1, 60)  0.7358E-04 (  3,  3, 35)  0.2634E-05 (  4,  2, 32)  0.2346E-06 (  3,  2, 31)  0.1365E-07 (  4,  2, 31)

 NO OUTPUT CONTROL FOR STRESS PERIOD    1   TIME STEP  71


                                          ================================================
                                                         FROM TIME =  0.71000     TO   0.72000    

 
 SOLVING FOR HEAD 
 FLOW MODEL IS TRANSIENT
 FLOW MODEL CONTAINS CONSTANT-HEAD CELLS


 MAXIMUM STEPSIZE DURING WHICH ANY PARTICLE CANNOT MOVE MORE THAN ONE CELL
 =  1.145    (WHEN MIN. R.F.=1)  AT K=   3, I=   2, J=  30

 MAXIMUM STEPSIZE WHICH MEETS STABILITY CRITERION OF THE ADVECTION TERM
 (FOR PURE FINITE-DIFFERENCE OPTION, MIXELM=0) 
 = 0.9079    (WHEN MIN. R.F.=1)  AT K=   3, I=   2, J=  31


 TOTAL NUMBER OF POINT SOURCES/SINKS PRESENT IN THE FLOW MODEL =   240

 MAXIMUM STEPSIZE WHICH MEETS STABILITY CRITERION OF THE SINK & SOURCE TERM
 = 0.1000E+31(WHEN MIN. R.F.=1)  AT K=   0, I=   0, J=   0

 MAXIMUM STEPSIZE WHICH MEETS STABILITY CRITERION OF THE DISPERSION TERM
 = 0.4892E-01(WHEN MIN. R.F.=1)  AT K=   3, I=   2, J=  30


     1 CALLS TO GCG PACKAGE FOR TRANSPORT TIME STEP   1 IN FLOW TIME STEP  72 STRESS PERIOD   1
     5 TOTAL ITERATIONS
  MAXIMUM CONCENTRATION CHANGES FOR EACH ITERATION:
  MAX. CHANGE LAYER,ROW,COL MAX. CHANGE LAYER,ROW,COL MAX. CHANGE LAYER,ROW,COL MAX. CHANGE LAYER,ROW,COL MAX. CHANGE LAYER,ROW,COL
 ------------------------------------------------------------------------------------------------------------------------------------
   0.1936E-02 (  2,  1, 60)  0.7303E-04 (  3,  3, 35)  0.2613E-05 (  4,  2, 32)  0.2329E-06 (  3,  2, 31)  0.1355E-07 (  4,  2, 31)

 NO OUTPUT CONTROL FOR STRESS PERIOD    1   TIME STEP  72


                                          ================================================
                                                         FROM TIME =  0.72000     TO   0.73000    

 
 SOLVING FOR HEAD 
 FLOW MODEL IS TRANSIENT
 FLOW MODEL CONTAINS CONSTANT-HEAD CELLS


 MAXIMUM STEPSIZE DURING WHICH ANY PARTICLE CANNOT MOVE MORE THAN ONE CELL
 =  1.145    (WHEN MIN. R.F.=1)  AT K=   3, I=   2, J=  30

 MAXIMUM STEPSIZE WHICH MEETS STABILITY CRITERION OF THE ADVECTION TERM
 (FOR PURE FINITE-DIFFERENCE OPTION, MIXELM=0) 
 = 0.9082    (WHEN MIN. R.F.=1)  AT K=   3, I=   2, J=  31


 TOTAL NUMBER OF POINT SOURCES/SINKS PRESENT IN THE FLOW MODEL =   240

 MAXIMUM STEPSIZE WHICH MEETS STABILITY CRITERION OF THE SINK & SOURCE TERM
 = 0.1000E+31(WHEN MIN. R.F.=1)  AT K=   0, I=   0, J=   0

 MAXIMUM STEPSIZE WHICH MEETS STABILITY CRITERION OF THE DISPERSION TERM
 = 0.4893E-01(WHEN MIN. R.F.=1)  AT K=   3, I=   2, J=  30


     1 CALLS TO GCG PACKAGE FOR TRANSPORT TIME STEP   1 IN FLOW TIME STEP  73 STRESS PERIOD   1
     5 TOTAL ITERATIONS
  MAXIMUM CONCENTRATION CHANGES FOR EACH ITERATION:
  MAX. CHANGE LAYER,ROW,COL MAX. CHANGE LAYER,ROW,COL MAX. CHANGE LAYER,ROW,COL MAX. CHANGE LAYER,ROW,COL MAX. CHANGE LAYER,ROW,COL
 ------------------------------------------------------------------------------------------------------------------------------------
   0.1927E-02 (  2,  1, 60)  0.7248E-04 (  3,  3, 35)  0.2592E-05 (  4,  2, 32)  0.2312E-06 (  3,  2, 31)  0.1345E-07 (  4,  2, 31)

 NO OUTPUT CONTROL FOR STRESS PERIOD    1   TIME STEP  73


                                          ================================================
                                                         FROM TIME =  0.73000     TO   0.74000    

 
 SOLVING FOR HEAD 
 FLOW MODEL IS TRANSIENT
 FLOW MODEL CONTAINS CONSTANT-HEAD CELLS


 MAXIMUM STEPSIZE DURING WHICH ANY PARTICLE CANNOT MOVE MORE THAN ONE CELL
 =  1.146    (WHEN MIN. R.F.=1)  AT K=   3, I=   2, J=  30

 MAXIMUM STEPSIZE WHICH MEETS STABILITY CRITERION OF THE ADVECTION TERM
 (FOR PURE FINITE-DIFFERENCE OPTION, MIXELM=0) 
 = 0.9084    (WHEN MIN. R.F.=1)  AT K=   3, I=   2, J=  31


 TOTAL NUMBER OF POINT SOURCES/SINKS PRESENT IN THE FLOW MODEL =   240

 MAXIMUM STEPSIZE WHICH MEETS STABILITY CRITERION OF THE SINK & SOURCE TERM
 = 0.1000E+31(WHEN MIN. R.F.=1)  AT K=   0, I=   0, J=   0

 MAXIMUM STEPSIZE WHICH MEETS STABILITY CRITERION OF THE DISPERSION TERM
 = 0.4894E-01(WHEN MIN. R.F.=1)  AT K=   3, I=   2, J=  30


     1 CALLS TO GCG PACKAGE FOR TRANSPORT TIME STEP   1 IN FLOW TIME STEP  74 STRESS PERIOD   1
     5 TOTAL ITERATIONS
  MAXIMUM CONCENTRATION CHANGES FOR EACH ITERATION:
  MAX. CHANGE LAYER,ROW,COL MAX. CHANGE LAYER,ROW,COL MAX. CHANGE LAYER,ROW,COL MAX. CHANGE LAYER,ROW,COL MAX. CHANGE LAYER,ROW,COL
 ------------------------------------------------------------------------------------------------------------------------------------
   0.1917E-02 (  2,  1, 60)  0.7194E-04 (  3,  3, 35)  0.2571E-05 (  4,  2, 32)  0.2296E-06 (  3,  2, 31)  0.1336E-07 (  4,  2, 31)

 NO OUTPUT CONTROL FOR STRESS PERIOD    1   TIME STEP  74


                                          ================================================
                                                         FROM TIME =  0.74000     TO   0.75000    

 
 SOLVING FOR HEAD 
 FLOW MODEL IS TRANSIENT
 FLOW MODEL CONTAINS CONSTANT-HEAD CELLS


 MAXIMUM STEPSIZE DURING WHICH ANY PARTICLE CANNOT MOVE MORE THAN ONE CELL
 =  1.146    (WHEN MIN. R.F.=1)  AT K=   3, I=   2, J=  30

 MAXIMUM STEPSIZE WHICH MEETS STABILITY CRITERION OF THE ADVECTION TERM
 (FOR PURE FINITE-DIFFERENCE OPTION, MIXELM=0) 
 = 0.9087    (WHEN MIN. R.F.=1)  AT K=   3, I=   2, J=  31


 TOTAL NUMBER OF POINT SOURCES/SINKS PRESENT IN THE FLOW MODEL =   240

 MAXIMUM STEPSIZE WHICH MEETS STABILITY CRITERION OF THE SINK & SOURCE TERM
 = 0.1000E+31(WHEN MIN. R.F.=1)  AT K=   0, I=   0, J=   0

 MAXIMUM STEPSIZE WHICH MEETS STABILITY CRITERION OF THE DISPERSION TERM
 = 0.4896E-01(WHEN MIN. R.F.=1)  AT K=   3, I=   2, J=  30


     1 CALLS TO GCG PACKAGE FOR TRANSPORT TIME STEP   1 IN FLOW TIME STEP  75 STRESS PERIOD   1
     5 TOTAL ITERATIONS
  MAXIMUM CONCENTRATION CHANGES FOR EACH ITERATION:
  MAX. CHANGE LAYER,ROW,COL MAX. CHANGE LAYER,ROW,COL MAX. CHANGE LAYER,ROW,COL MAX. CHANGE LAYER,ROW,COL MAX. CHANGE LAYER,ROW,COL
 ------------------------------------------------------------------------------------------------------------------------------------
   0.1908E-02 (  2,  1, 60)  0.7141E-04 (  3,  3, 35)  0.2552E-05 (  4,  2, 31)  0.2279E-06 (  3,  2, 31)  0.1326E-07 (  4,  2, 31)

 NO OUTPUT CONTROL FOR STRESS PERIOD    1   TIME STEP  75


                                          ================================================
                                                         FROM TIME =  0.75000     TO   0.76000    

 
 SOLVING FOR HEAD 
 FLOW MODEL IS TRANSIENT
 FLOW MODEL CONTAINS CONSTANT-HEAD CELLS


 MAXIMUM STEPSIZE DURING WHICH ANY PARTICLE CANNOT MOVE MORE THAN ONE CELL
 =  1.146    (WHEN MIN. R.F.=1)  AT K=   3, I=   2, J=  30

 MAXIMUM STEPSIZE WHICH MEETS STABILITY CRITERION OF THE ADVECTION TERM
 (FOR PURE FINITE-DIFFERENCE OPTION, MIXELM=0) 
 = 0.9089    (WHEN MIN. R.F.=1)  AT K=   3, I=   2, J=  31


 TOTAL NUMBER OF POINT SOURCES/SINKS PRESENT IN THE FLOW MODEL =   240

 MAXIMUM STEPSIZE WHICH MEETS STABILITY CRITERION OF THE SINK & SOURCE TERM
 = 0.1000E+31(WHEN MIN. R.F.=1)  AT K=   0, I=   0, J=   0

 MAXIMUM STEPSIZE WHICH MEETS STABILITY CRITERION OF THE DISPERSION TERM
 = 0.4897E-01(WHEN MIN. R.F.=1)  AT K=   3, I=   2, J=  30


     1 CALLS TO GCG PACKAGE FOR TRANSPORT TIME STEP   1 IN FLOW TIME STEP  76 STRESS PERIOD   1
     5 TOTAL ITERATIONS
  MAXIMUM CONCENTRATION CHANGES FOR EACH ITERATION:
  MAX. CHANGE LAYER,ROW,COL MAX. CHANGE LAYER,ROW,COL MAX. CHANGE LAYER,ROW,COL MAX. CHANGE LAYER,ROW,COL MAX. CHANGE LAYER,ROW,COL
 ------------------------------------------------------------------------------------------------------------------------------------
   0.1899E-02 (  2,  1, 60)  0.7089E-04 (  3,  3, 35)  0.2534E-05 (  4,  2, 31)  0.2263E-06 (  3,  2, 31)  0.1317E-07 (  4,  2, 31)

 NO OUTPUT CONTROL FOR STRESS PERIOD    1   TIME STEP  76


                                          ================================================
                                                         FROM TIME =  0.76000     TO   0.77000    

 
 SOLVING FOR HEAD 
 FLOW MODEL IS TRANSIENT
 FLOW MODEL CONTAINS CONSTANT-HEAD CELLS


 MAXIMUM STEPSIZE DURING WHICH ANY PARTICLE CANNOT MOVE MORE THAN ONE CELL
 =  1.147    (WHEN MIN. R.F.=1)  AT K=   3, I=   2, J=  30

 MAXIMUM STEPSIZE WHICH MEETS STABILITY CRITERION OF THE ADVECTION TERM
 (FOR PURE FINITE-DIFFERENCE OPTION, MIXELM=0) 
 = 0.9092    (WHEN MIN. R.F.=1)  AT K=   3, I=   2, J=  31


 TOTAL NUMBER OF POINT SOURCES/SINKS PRESENT IN THE FLOW MODEL =   240

 MAXIMUM STEPSIZE WHICH MEETS STABILITY CRITERION OF THE SINK & SOURCE TERM
 = 0.1000E+31(WHEN MIN. R.F.=1)  AT K=   0, I=   0, J=   0

 MAXIMUM STEPSIZE WHICH MEETS STABILITY CRITERION OF THE DISPERSION TERM
 = 0.4899E-01(WHEN MIN. R.F.=1)  AT K=   3, I=   2, J=  30


     1 CALLS TO GCG PACKAGE FOR TRANSPORT TIME STEP   1 IN FLOW TIME STEP  77 STRESS PERIOD   1
     5 TOTAL ITERATIONS
  MAXIMUM CONCENTRATION CHANGES FOR EACH ITERATION:
  MAX. CHANGE LAYER,ROW,COL MAX. CHANGE LAYER,ROW,COL MAX. CHANGE LAYER,ROW,COL MAX. CHANGE LAYER,ROW,COL MAX. CHANGE LAYER,ROW,COL
 ------------------------------------------------------------------------------------------------------------------------------------
   0.1890E-02 (  2,  1, 60)  0.7038E-04 (  3,  3, 35)  0.2516E-05 (  4,  2, 31)  0.2248E-06 (  3,  2, 31)  0.1308E-07 (  4,  2, 31)

 NO OUTPUT CONTROL FOR STRESS PERIOD    1   TIME STEP  77


                                          ================================================
                                                         FROM TIME =  0.77000     TO   0.78000    

 
 SOLVING FOR HEAD 
 FLOW MODEL IS TRANSIENT
 FLOW MODEL CONTAINS CONSTANT-HEAD CELLS


 MAXIMUM STEPSIZE DURING WHICH ANY PARTICLE CANNOT MOVE MORE THAN ONE CELL
 =  1.147    (WHEN MIN. R.F.=1)  AT K=   3, I=   2, J=  30

 MAXIMUM STEPSIZE WHICH MEETS STABILITY CRITERION OF THE ADVECTION TERM
 (FOR PURE FINITE-DIFFERENCE OPTION, MIXELM=0) 
 = 0.9094    (WHEN MIN. R.F.=1)  AT K=   3, I=   2, J=  31


 TOTAL NUMBER OF POINT SOURCES/SINKS PRESENT IN THE FLOW MODEL =   240

 MAXIMUM STEPSIZE WHICH MEETS STABILITY CRITERION OF THE SINK & SOURCE TERM
 = 0.1000E+31(WHEN MIN. R.F.=1)  AT K=   0, I=   0, J=   0

 MAXIMUM STEPSIZE WHICH MEETS STABILITY CRITERION OF THE DISPERSION TERM
 = 0.4900E-01(WHEN MIN. R.F.=1)  AT K=   3, I=   2, J=  30


     1 CALLS TO GCG PACKAGE FOR TRANSPORT TIME STEP   1 IN FLOW TIME STEP  78 STRESS PERIOD   1
     5 TOTAL ITERATIONS
  MAXIMUM CONCENTRATION CHANGES FOR EACH ITERATION:
  MAX. CHANGE LAYER,ROW,COL MAX. CHANGE LAYER,ROW,COL MAX. CHANGE LAYER,ROW,COL MAX. CHANGE LAYER,ROW,COL MAX. CHANGE LAYER,ROW,COL
 ------------------------------------------------------------------------------------------------------------------------------------
   0.1881E-02 (  2,  1, 60)  0.6987E-04 (  3,  3, 35)  0.2498E-05 (  4,  2, 31)  0.2232E-06 (  3,  2, 31)  0.1299E-07 (  4,  2, 31)

 NO OUTPUT CONTROL FOR STRESS PERIOD    1   TIME STEP  78


                                          ================================================
                                                         FROM TIME =  0.78000     TO   0.79000    

 
 SOLVING FOR HEAD 
 FLOW MODEL IS TRANSIENT
 FLOW MODEL CONTAINS CONSTANT-HEAD CELLS


 MAXIMUM STEPSIZE DURING WHICH ANY PARTICLE CANNOT MOVE MORE THAN ONE CELL
 =  1.147    (WHEN MIN. R.F.=1)  AT K=   3, I=   2, J=  30

 MAXIMUM STEPSIZE WHICH MEETS STABILITY CRITERION OF THE ADVECTION TERM
 (FOR PURE FINITE-DIFFERENCE OPTION, MIXELM=0) 
 = 0.9097    (WHEN MIN. R.F.=1)  AT K=   3, I=   2, J=  31


 TOTAL NUMBER OF POINT SOURCES/SINKS PRESENT IN THE FLOW MODEL =   240

 MAXIMUM STEPSIZE WHICH MEETS STABILITY CRITERION OF THE SINK & SOURCE TERM
 = 0.1000E+31(WHEN MIN. R.F.=1)  AT K=   0, I=   0, J=   0

 MAXIMUM STEPSIZE WHICH MEETS STABILITY CRITERION OF THE DISPERSION TERM
 = 0.4901E-01(WHEN MIN. R.F.=1)  AT K=   3, I=   2, J=  30


     1 CALLS TO GCG PACKAGE FOR TRANSPORT TIME STEP   1 IN FLOW TIME STEP  79 STRESS PERIOD   1
     5 TOTAL ITERATIONS
  MAXIMUM CONCENTRATION CHANGES FOR EACH ITERATION:
  MAX. CHANGE LAYER,ROW,COL MAX. CHANGE LAYER,ROW,COL MAX. CHANGE LAYER,ROW,COL MAX. CHANGE LAYER,ROW,COL MAX. CHANGE LAYER,ROW,COL
 ------------------------------------------------------------------------------------------------------------------------------------
   0.1872E-02 (  2,  1, 60)  0.6937E-04 (  3,  3, 35)  0.2481E-05 (  4,  2, 31)  0.2217E-06 (  3,  2, 31)  0.1290E-07 (  4,  2, 31)

 NO OUTPUT CONTROL FOR STRESS PERIOD    1   TIME STEP  79


                                          ================================================
                                                         FROM TIME =  0.79000     TO   0.80000    

 
 SOLVING FOR HEAD 
 FLOW MODEL IS TRANSIENT
 FLOW MODEL CONTAINS CONSTANT-HEAD CELLS


 MAXIMUM STEPSIZE DURING WHICH ANY PARTICLE CANNOT MOVE MORE THAN ONE CELL
 =  1.148    (WHEN MIN. R.F.=1)  AT K=   3, I=   2, J=  30

 MAXIMUM STEPSIZE WHICH MEETS STABILITY CRITERION OF THE ADVECTION TERM
 (FOR PURE FINITE-DIFFERENCE OPTION, MIXELM=0) 
 = 0.9099    (WHEN MIN. R.F.=1)  AT K=   3, I=   2, J=  31


 TOTAL NUMBER OF POINT SOURCES/SINKS PRESENT IN THE FLOW MODEL =   240

 MAXIMUM STEPSIZE WHICH MEETS STABILITY CRITERION OF THE SINK & SOURCE TERM
 = 0.1000E+31(WHEN MIN. R.F.=1)  AT K=   0, I=   0, J=   0

 MAXIMUM STEPSIZE WHICH MEETS STABILITY CRITERION OF THE DISPERSION TERM
 = 0.4903E-01(WHEN MIN. R.F.=1)  AT K=   3, I=   2, J=  30


     1 CALLS TO GCG PACKAGE FOR TRANSPORT TIME STEP   1 IN FLOW TIME STEP  80 STRESS PERIOD   1
     5 TOTAL ITERATIONS
  MAXIMUM CONCENTRATION CHANGES FOR EACH ITERATION:
  MAX. CHANGE LAYER,ROW,COL MAX. CHANGE LAYER,ROW,COL MAX. CHANGE LAYER,ROW,COL MAX. CHANGE LAYER,ROW,COL MAX. CHANGE LAYER,ROW,COL
 ------------------------------------------------------------------------------------------------------------------------------------
   0.1862E-02 (  2,  1, 60)  0.6888E-04 (  3,  3, 35)  0.2464E-05 (  4,  2, 31)  0.2202E-06 (  3,  2, 31)  0.1282E-07 (  4,  2, 31)

 NO OUTPUT CONTROL FOR STRESS PERIOD    1   TIME STEP  80


                                          ================================================
                                                         FROM TIME =  0.80000     TO   0.81000    

 
 SOLVING FOR HEAD 
 FLOW MODEL IS TRANSIENT
 FLOW MODEL CONTAINS CONSTANT-HEAD CELLS


 MAXIMUM STEPSIZE DURING WHICH ANY PARTICLE CANNOT MOVE MORE THAN ONE CELL
 =  1.148    (WHEN MIN. R.F.=1)  AT K=   3, I=   2, J=  30

 MAXIMUM STEPSIZE WHICH MEETS STABILITY CRITERION OF THE ADVECTION TERM
 (FOR PURE FINITE-DIFFERENCE OPTION, MIXELM=0) 
 = 0.9102    (WHEN MIN. R.F.=1)  AT K=   3, I=   2, J=  31


 TOTAL NUMBER OF POINT SOURCES/SINKS PRESENT IN THE FLOW MODEL =   240

 MAXIMUM STEPSIZE WHICH MEETS STABILITY CRITERION OF THE SINK & SOURCE TERM
 = 0.1000E+31(WHEN MIN. R.F.=1)  AT K=   0, I=   0, J=   0

 MAXIMUM STEPSIZE WHICH MEETS STABILITY CRITERION OF THE DISPERSION TERM
 = 0.4904E-01(WHEN MIN. R.F.=1)  AT K=   3, I=   2, J=  30


     1 CALLS TO GCG PACKAGE FOR TRANSPORT TIME STEP   1 IN FLOW TIME STEP  81 STRESS PERIOD   1
     5 TOTAL ITERATIONS
  MAXIMUM CONCENTRATION CHANGES FOR EACH ITERATION:
  MAX. CHANGE LAYER,ROW,COL MAX. CHANGE LAYER,ROW,COL MAX. CHANGE LAYER,ROW,COL MAX. CHANGE LAYER,ROW,COL MAX. CHANGE LAYER,ROW,COL
 ------------------------------------------------------------------------------------------------------------------------------------
   0.1853E-02 (  2,  1, 60)  0.6839E-04 (  3,  3, 35)  0.2447E-05 (  4,  2, 31)  0.2188E-06 (  3,  2, 31)  0.1273E-07 (  4,  2, 31)

 NO OUTPUT CONTROL FOR STRESS PERIOD    1   TIME STEP  81


                                          ================================================
                                                         FROM TIME =  0.81000     TO   0.82000    

 
 SOLVING FOR HEAD 
 FLOW MODEL IS TRANSIENT
 FLOW MODEL CONTAINS CONSTANT-HEAD CELLS


 MAXIMUM STEPSIZE DURING WHICH ANY PARTICLE CANNOT MOVE MORE THAN ONE CELL
 =  1.148    (WHEN MIN. R.F.=1)  AT K=   3, I=   2, J=  30

 MAXIMUM STEPSIZE WHICH MEETS STABILITY CRITERION OF THE ADVECTION TERM
 (FOR PURE FINITE-DIFFERENCE OPTION, MIXELM=0) 
 = 0.9104    (WHEN MIN. R.F.=1)  AT K=   3, I=   2, J=  31


 TOTAL NUMBER OF POINT SOURCES/SINKS PRESENT IN THE FLOW MODEL =   240

 MAXIMUM STEPSIZE WHICH MEETS STABILITY CRITERION OF THE SINK & SOURCE TERM
 = 0.1000E+31(WHEN MIN. R.F.=1)  AT K=   0, I=   0, J=   0

 MAXIMUM STEPSIZE WHICH MEETS STABILITY CRITERION OF THE DISPERSION TERM
 = 0.4906E-01(WHEN MIN. R.F.=1)  AT K=   3, I=   2, J=  30


     1 CALLS TO GCG PACKAGE FOR TRANSPORT TIME STEP   1 IN FLOW TIME STEP  82 STRESS PERIOD   1
     5 TOTAL ITERATIONS
  MAXIMUM CONCENTRATION CHANGES FOR EACH ITERATION:
  MAX. CHANGE LAYER,ROW,COL MAX. CHANGE LAYER,ROW,COL MAX. CHANGE LAYER,ROW,COL MAX. CHANGE LAYER,ROW,COL MAX. CHANGE LAYER,ROW,COL
 ------------------------------------------------------------------------------------------------------------------------------------
   0.1844E-02 (  2,  1, 60)  0.6792E-04 (  3,  3, 35)  0.2431E-05 (  4,  2, 31)  0.2173E-06 (  3,  2, 31)  0.1265E-07 (  4,  2, 31)

 NO OUTPUT CONTROL FOR STRESS PERIOD    1   TIME STEP  82


                                          ================================================
                                                         FROM TIME =  0.82000     TO   0.83000    

 
 SOLVING FOR HEAD 
 FLOW MODEL IS TRANSIENT
 FLOW MODEL CONTAINS CONSTANT-HEAD CELLS


 MAXIMUM STEPSIZE DURING WHICH ANY PARTICLE CANNOT MOVE MORE THAN ONE CELL
 =  1.149    (WHEN MIN. R.F.=1)  AT K=   3, I=   2, J=  30

 MAXIMUM STEPSIZE WHICH MEETS STABILITY CRITERION OF THE ADVECTION TERM
 (FOR PURE FINITE-DIFFERENCE OPTION, MIXELM=0) 
 = 0.9107    (WHEN MIN. R.F.=1)  AT K=   3, I=   2, J=  31


 TOTAL NUMBER OF POINT SOURCES/SINKS PRESENT IN THE FLOW MODEL =   240

 MAXIMUM STEPSIZE WHICH MEETS STABILITY CRITERION OF THE SINK & SOURCE TERM
 = 0.1000E+31(WHEN MIN. R.F.=1)  AT K=   0, I=   0, J=   0

 MAXIMUM STEPSIZE WHICH MEETS STABILITY CRITERION OF THE DISPERSION TERM
 = 0.4907E-01(WHEN MIN. R.F.=1)  AT K=   3, I=   2, J=  30


     1 CALLS TO GCG PACKAGE FOR TRANSPORT TIME STEP   1 IN FLOW TIME STEP  83 STRESS PERIOD   1
     5 TOTAL ITERATIONS
  MAXIMUM CONCENTRATION CHANGES FOR EACH ITERATION:
  MAX. CHANGE LAYER,ROW,COL MAX. CHANGE LAYER,ROW,COL MAX. CHANGE LAYER,ROW,COL MAX. CHANGE LAYER,ROW,COL MAX. CHANGE LAYER,ROW,COL
 ------------------------------------------------------------------------------------------------------------------------------------
   0.1835E-02 (  2,  1, 60)  0.6745E-04 (  3,  3, 35)  0.2415E-05 (  4,  2, 31)  0.2159E-06 (  3,  2, 31)  0.1256E-07 (  4,  2, 31)

 NO OUTPUT CONTROL FOR STRESS PERIOD    1   TIME STEP  83


                                          ================================================
                                                         FROM TIME =  0.83000     TO   0.84000    

 
 SOLVING FOR HEAD 
 FLOW MODEL IS TRANSIENT
 FLOW MODEL CONTAINS CONSTANT-HEAD CELLS


 MAXIMUM STEPSIZE DURING WHICH ANY PARTICLE CANNOT MOVE MORE THAN ONE CELL
 =  1.149    (WHEN MIN. R.F.=1)  AT K=   3, I=   2, J=  30

 MAXIMUM STEPSIZE WHICH MEETS STABILITY CRITERION OF THE ADVECTION TERM
 (FOR PURE FINITE-DIFFERENCE OPTION, MIXELM=0) 
 = 0.9109    (WHEN MIN. R.F.=1)  AT K=   3, I=   2, J=  31


 TOTAL NUMBER OF POINT SOURCES/SINKS PRESENT IN THE FLOW MODEL =   240

 MAXIMUM STEPSIZE WHICH MEETS STABILITY CRITERION OF THE SINK & SOURCE TERM
 = 0.1000E+31(WHEN MIN. R.F.=1)  AT K=   0, I=   0, J=   0

 MAXIMUM STEPSIZE WHICH MEETS STABILITY CRITERION OF THE DISPERSION TERM
 = 0.4908E-01(WHEN MIN. R.F.=1)  AT K=   3, I=   2, J=  30


     1 CALLS TO GCG PACKAGE FOR TRANSPORT TIME STEP   1 IN FLOW TIME STEP  84 STRESS PERIOD   1
     5 TOTAL ITERATIONS
  MAXIMUM CONCENTRATION CHANGES FOR EACH ITERATION:
  MAX. CHANGE LAYER,ROW,COL MAX. CHANGE LAYER,ROW,COL MAX. CHANGE LAYER,ROW,COL MAX. CHANGE LAYER,ROW,COL MAX. CHANGE LAYER,ROW,COL
 ------------------------------------------------------------------------------------------------------------------------------------
   0.1826E-02 (  2,  1, 60)  0.6698E-04 (  3,  3, 35)  0.2399E-05 (  4,  2, 31)  0.2145E-06 (  3,  2, 31)  0.1248E-07 (  4,  2, 31)

 NO OUTPUT CONTROL FOR STRESS PERIOD    1   TIME STEP  84


                                          ================================================
                                                         FROM TIME =  0.84000     TO   0.85000    

 
 SOLVING FOR HEAD 
 FLOW MODEL IS TRANSIENT
 FLOW MODEL CONTAINS CONSTANT-HEAD CELLS


 MAXIMUM STEPSIZE DURING WHICH ANY PARTICLE CANNOT MOVE MORE THAN ONE CELL
 =  1.149    (WHEN MIN. R.F.=1)  AT K=   3, I=   2, J=  30

 MAXIMUM STEPSIZE WHICH MEETS STABILITY CRITERION OF THE ADVECTION TERM
 (FOR PURE FINITE-DIFFERENCE OPTION, MIXELM=0) 
 = 0.9111    (WHEN MIN. R.F.=1)  AT K=   3, I=   2, J=  31


 TOTAL NUMBER OF POINT SOURCES/SINKS PRESENT IN THE FLOW MODEL =   240

 MAXIMUM STEPSIZE WHICH MEETS STABILITY CRITERION OF THE SINK & SOURCE TERM
 = 0.1000E+31(WHEN MIN. R.F.=1)  AT K=   0, I=   0, J=   0

 MAXIMUM STEPSIZE WHICH MEETS STABILITY CRITERION OF THE DISPERSION TERM
 = 0.4910E-01(WHEN MIN. R.F.=1)  AT K=   3, I=   2, J=  30


     1 CALLS TO GCG PACKAGE FOR TRANSPORT TIME STEP   1 IN FLOW TIME STEP  85 STRESS PERIOD   1
     5 TOTAL ITERATIONS
  MAXIMUM CONCENTRATION CHANGES FOR EACH ITERATION:
  MAX. CHANGE LAYER,ROW,COL MAX. CHANGE LAYER,ROW,COL MAX. CHANGE LAYER,ROW,COL MAX. CHANGE LAYER,ROW,COL MAX. CHANGE LAYER,ROW,COL
 ------------------------------------------------------------------------------------------------------------------------------------
   0.1817E-02 (  2,  1, 60)  0.6653E-04 (  3,  3, 35)  0.2384E-05 (  4,  2, 31)  0.2131E-06 (  3,  2, 31)  0.1240E-07 (  4,  2, 31)

 NO OUTPUT CONTROL FOR STRESS PERIOD    1   TIME STEP  85


                                          ================================================
                                                         FROM TIME =  0.85000     TO   0.86000    

 
 SOLVING FOR HEAD 
 FLOW MODEL IS TRANSIENT
 FLOW MODEL CONTAINS CONSTANT-HEAD CELLS


 MAXIMUM STEPSIZE DURING WHICH ANY PARTICLE CANNOT MOVE MORE THAN ONE CELL
 =  1.149    (WHEN MIN. R.F.=1)  AT K=   3, I=   2, J=  30

 MAXIMUM STEPSIZE WHICH MEETS STABILITY CRITERION OF THE ADVECTION TERM
 (FOR PURE FINITE-DIFFERENCE OPTION, MIXELM=0) 
 = 0.9114    (WHEN MIN. R.F.=1)  AT K=   3, I=   2, J=  31


 TOTAL NUMBER OF POINT SOURCES/SINKS PRESENT IN THE FLOW MODEL =   240

 MAXIMUM STEPSIZE WHICH MEETS STABILITY CRITERION OF THE SINK & SOURCE TERM
 = 0.1000E+31(WHEN MIN. R.F.=1)  AT K=   0, I=   0, J=   0

 MAXIMUM STEPSIZE WHICH MEETS STABILITY CRITERION OF THE DISPERSION TERM
 = 0.4911E-01(WHEN MIN. R.F.=1)  AT K=   3, I=   2, J=  30


     1 CALLS TO GCG PACKAGE FOR TRANSPORT TIME STEP   1 IN FLOW TIME STEP  86 STRESS PERIOD   1
     5 TOTAL ITERATIONS
  MAXIMUM CONCENTRATION CHANGES FOR EACH ITERATION:
  MAX. CHANGE LAYER,ROW,COL MAX. CHANGE LAYER,ROW,COL MAX. CHANGE LAYER,ROW,COL MAX. CHANGE LAYER,ROW,COL MAX. CHANGE LAYER,ROW,COL
 ------------------------------------------------------------------------------------------------------------------------------------
   0.1808E-02 (  2,  1, 60)  0.6608E-04 (  3,  3, 35)  0.2368E-05 (  4,  2, 31)  0.2118E-06 (  3,  2, 31)  0.1232E-07 (  4,  2, 31)

 NO OUTPUT CONTROL FOR STRESS PERIOD    1   TIME STEP  86


                                          ================================================
                                                         FROM TIME =  0.86000     TO   0.87000    

 
 SOLVING FOR HEAD 
 FLOW MODEL IS TRANSIENT
 FLOW MODEL CONTAINS CONSTANT-HEAD CELLS


 MAXIMUM STEPSIZE DURING WHICH ANY PARTICLE CANNOT MOVE MORE THAN ONE CELL
 =  1.150    (WHEN MIN. R.F.=1)  AT K=   3, I=   2, J=  30

 MAXIMUM STEPSIZE WHICH MEETS STABILITY CRITERION OF THE ADVECTION TERM
 (FOR PURE FINITE-DIFFERENCE OPTION, MIXELM=0) 
 = 0.9116    (WHEN MIN. R.F.=1)  AT K=   3, I=   2, J=  31


 TOTAL NUMBER OF POINT SOURCES/SINKS PRESENT IN THE FLOW MODEL =   240

 MAXIMUM STEPSIZE WHICH MEETS STABILITY CRITERION OF THE SINK & SOURCE TERM
 = 0.1000E+31(WHEN MIN. R.F.=1)  AT K=   0, I=   0, J=   0

 MAXIMUM STEPSIZE WHICH MEETS STABILITY CRITERION OF THE DISPERSION TERM
 = 0.4912E-01(WHEN MIN. R.F.=1)  AT K=   3, I=   2, J=  30


     1 CALLS TO GCG PACKAGE FOR TRANSPORT TIME STEP   1 IN FLOW TIME STEP  87 STRESS PERIOD   1
     5 TOTAL ITERATIONS
  MAXIMUM CONCENTRATION CHANGES FOR EACH ITERATION:
  MAX. CHANGE LAYER,ROW,COL MAX. CHANGE LAYER,ROW,COL MAX. CHANGE LAYER,ROW,COL MAX. CHANGE LAYER,ROW,COL MAX. CHANGE LAYER,ROW,COL
 ------------------------------------------------------------------------------------------------------------------------------------
   0.1799E-02 (  2,  1, 60)  0.6563E-04 (  3,  3, 35)  0.2353E-05 (  4,  2, 31)  0.2104E-06 (  3,  2, 31)  0.1224E-07 (  4,  2, 31)

 NO OUTPUT CONTROL FOR STRESS PERIOD    1   TIME STEP  87


                                          ================================================
                                                         FROM TIME =  0.87000     TO   0.88000    

 
 SOLVING FOR HEAD 
 FLOW MODEL IS TRANSIENT
 FLOW MODEL CONTAINS CONSTANT-HEAD CELLS


 MAXIMUM STEPSIZE DURING WHICH ANY PARTICLE CANNOT MOVE MORE THAN ONE CELL
 =  1.150    (WHEN MIN. R.F.=1)  AT K=   3, I=   2, J=  30

 MAXIMUM STEPSIZE WHICH MEETS STABILITY CRITERION OF THE ADVECTION TERM
 (FOR PURE FINITE-DIFFERENCE OPTION, MIXELM=0) 
 = 0.9118    (WHEN MIN. R.F.=1)  AT K=   3, I=   2, J=  31


 TOTAL NUMBER OF POINT SOURCES/SINKS PRESENT IN THE FLOW MODEL =   240

 MAXIMUM STEPSIZE WHICH MEETS STABILITY CRITERION OF THE SINK & SOURCE TERM
 = 0.1000E+31(WHEN MIN. R.F.=1)  AT K=   0, I=   0, J=   0

 MAXIMUM STEPSIZE WHICH MEETS STABILITY CRITERION OF THE DISPERSION TERM
 = 0.4914E-01(WHEN MIN. R.F.=1)  AT K=   3, I=   2, J=  30


     1 CALLS TO GCG PACKAGE FOR TRANSPORT TIME STEP   1 IN FLOW TIME STEP  88 STRESS PERIOD   1
     5 TOTAL ITERATIONS
  MAXIMUM CONCENTRATION CHANGES FOR EACH ITERATION:
  MAX. CHANGE LAYER,ROW,COL MAX. CHANGE LAYER,ROW,COL MAX. CHANGE LAYER,ROW,COL MAX. CHANGE LAYER,ROW,COL MAX. CHANGE LAYER,ROW,COL
 ------------------------------------------------------------------------------------------------------------------------------------
   0.1790E-02 (  2,  1, 60)  0.6520E-04 (  3,  3, 35)  0.2338E-05 (  4,  2, 31)  0.2091E-06 (  3,  2, 31)  0.1216E-07 (  4,  2, 31)

 NO OUTPUT CONTROL FOR STRESS PERIOD    1   TIME STEP  88


                                          ================================================
                                                         FROM TIME =  0.88000     TO   0.89000    

 
 SOLVING FOR HEAD 
 FLOW MODEL IS TRANSIENT
 FLOW MODEL CONTAINS CONSTANT-HEAD CELLS


 MAXIMUM STEPSIZE DURING WHICH ANY PARTICLE CANNOT MOVE MORE THAN ONE CELL
 =  1.150    (WHEN MIN. R.F.=1)  AT K=   3, I=   2, J=  30

 MAXIMUM STEPSIZE WHICH MEETS STABILITY CRITERION OF THE ADVECTION TERM
 (FOR PURE FINITE-DIFFERENCE OPTION, MIXELM=0) 
 = 0.9121    (WHEN MIN. R.F.=1)  AT K=   3, I=   2, J=  31


 TOTAL NUMBER OF POINT SOURCES/SINKS PRESENT IN THE FLOW MODEL =   240

 MAXIMUM STEPSIZE WHICH MEETS STABILITY CRITERION OF THE SINK & SOURCE TERM
 = 0.1000E+31(WHEN MIN. R.F.=1)  AT K=   0, I=   0, J=   0

 MAXIMUM STEPSIZE WHICH MEETS STABILITY CRITERION OF THE DISPERSION TERM
 = 0.4915E-01(WHEN MIN. R.F.=1)  AT K=   3, I=   2, J=  30


     1 CALLS TO GCG PACKAGE FOR TRANSPORT TIME STEP   1 IN FLOW TIME STEP  89 STRESS PERIOD   1
     5 TOTAL ITERATIONS
  MAXIMUM CONCENTRATION CHANGES FOR EACH ITERATION:
  MAX. CHANGE LAYER,ROW,COL MAX. CHANGE LAYER,ROW,COL MAX. CHANGE LAYER,ROW,COL MAX. CHANGE LAYER,ROW,COL MAX. CHANGE LAYER,ROW,COL
 ------------------------------------------------------------------------------------------------------------------------------------
   0.1781E-02 (  2,  1, 60)  0.6477E-04 (  3,  3, 35)  0.2324E-05 (  4,  2, 31)  0.2078E-06 (  3,  2, 31)  0.1209E-07 (  4,  2, 31)

 NO OUTPUT CONTROL FOR STRESS PERIOD    1   TIME STEP  89


                                          ================================================
                                                         FROM TIME =  0.89000     TO   0.90000    

 
 SOLVING FOR HEAD 
 FLOW MODEL IS TRANSIENT
 FLOW MODEL CONTAINS CONSTANT-HEAD CELLS


 MAXIMUM STEPSIZE DURING WHICH ANY PARTICLE CANNOT MOVE MORE THAN ONE CELL
 =  1.151    (WHEN MIN. R.F.=1)  AT K=   3, I=   2, J=  30

 MAXIMUM STEPSIZE WHICH MEETS STABILITY CRITERION OF THE ADVECTION TERM
 (FOR PURE FINITE-DIFFERENCE OPTION, MIXELM=0) 
 = 0.9123    (WHEN MIN. R.F.=1)  AT K=   3, I=   2, J=  31


 TOTAL NUMBER OF POINT SOURCES/SINKS PRESENT IN THE FLOW MODEL =   240

 MAXIMUM STEPSIZE WHICH MEETS STABILITY CRITERION OF THE SINK & SOURCE TERM
 = 0.1000E+31(WHEN MIN. R.F.=1)  AT K=   0, I=   0, J=   0

 MAXIMUM STEPSIZE WHICH MEETS STABILITY CRITERION OF THE DISPERSION TERM
 = 0.4916E-01(WHEN MIN. R.F.=1)  AT K=   3, I=   2, J=  30


     1 CALLS TO GCG PACKAGE FOR TRANSPORT TIME STEP   1 IN FLOW TIME STEP  90 STRESS PERIOD   1
     5 TOTAL ITERATIONS
  MAXIMUM CONCENTRATION CHANGES FOR EACH ITERATION:
  MAX. CHANGE LAYER,ROW,COL MAX. CHANGE LAYER,ROW,COL MAX. CHANGE LAYER,ROW,COL MAX. CHANGE LAYER,ROW,COL MAX. CHANGE LAYER,ROW,COL
 ------------------------------------------------------------------------------------------------------------------------------------
   0.1772E-02 (  2,  1, 60)  0.6434E-04 (  3,  3, 35)  0.2310E-05 (  4,  2, 31)  0.2066E-06 (  3,  2, 31)  0.1201E-07 (  4,  2, 31)

 NO OUTPUT CONTROL FOR STRESS PERIOD    1   TIME STEP  90


                                          ================================================
                                                         FROM TIME =  0.90000     TO   0.91000    

 
 SOLVING FOR HEAD 
 FLOW MODEL IS TRANSIENT
 FLOW MODEL CONTAINS CONSTANT-HEAD CELLS


 MAXIMUM STEPSIZE DURING WHICH ANY PARTICLE CANNOT MOVE MORE THAN ONE CELL
 =  1.151    (WHEN MIN. R.F.=1)  AT K=   3, I=   2, J=  30

 MAXIMUM STEPSIZE WHICH MEETS STABILITY CRITERION OF THE ADVECTION TERM
 (FOR PURE FINITE-DIFFERENCE OPTION, MIXELM=0) 
 = 0.9125    (WHEN MIN. R.F.=1)  AT K=   3, I=   2, J=  31


 TOTAL NUMBER OF POINT SOURCES/SINKS PRESENT IN THE FLOW MODEL =   240

 MAXIMUM STEPSIZE WHICH MEETS STABILITY CRITERION OF THE SINK & SOURCE TERM
 = 0.1000E+31(WHEN MIN. R.F.=1)  AT K=   0, I=   0, J=   0

 MAXIMUM STEPSIZE WHICH MEETS STABILITY CRITERION OF THE DISPERSION TERM
 = 0.4918E-01(WHEN MIN. R.F.=1)  AT K=   3, I=   2, J=  30


     1 CALLS TO GCG PACKAGE FOR TRANSPORT TIME STEP   1 IN FLOW TIME STEP  91 STRESS PERIOD   1
     5 TOTAL ITERATIONS
  MAXIMUM CONCENTRATION CHANGES FOR EACH ITERATION:
  MAX. CHANGE LAYER,ROW,COL MAX. CHANGE LAYER,ROW,COL MAX. CHANGE LAYER,ROW,COL MAX. CHANGE LAYER,ROW,COL MAX. CHANGE LAYER,ROW,COL
 ------------------------------------------------------------------------------------------------------------------------------------
   0.1763E-02 (  2,  1, 60)  0.6393E-04 (  3,  3, 35)  0.2295E-05 (  4,  2, 31)  0.2053E-06 (  3,  2, 31)  0.1194E-07 (  4,  2, 31)

 NO OUTPUT CONTROL FOR STRESS PERIOD    1   TIME STEP  91


                                          ================================================
                                                         FROM TIME =  0.91000     TO   0.92000    

 
 SOLVING FOR HEAD 
 FLOW MODEL IS TRANSIENT
 FLOW MODEL CONTAINS CONSTANT-HEAD CELLS


 MAXIMUM STEPSIZE DURING WHICH ANY PARTICLE CANNOT MOVE MORE THAN ONE CELL
 =  1.151    (WHEN MIN. R.F.=1)  AT K=   3, I=   2, J=  30

 MAXIMUM STEPSIZE WHICH MEETS STABILITY CRITERION OF THE ADVECTION TERM
 (FOR PURE FINITE-DIFFERENCE OPTION, MIXELM=0) 
 = 0.9127    (WHEN MIN. R.F.=1)  AT K=   3, I=   2, J=  31


 TOTAL NUMBER OF POINT SOURCES/SINKS PRESENT IN THE FLOW MODEL =   240

 MAXIMUM STEPSIZE WHICH MEETS STABILITY CRITERION OF THE SINK & SOURCE TERM
 = 0.1000E+31(WHEN MIN. R.F.=1)  AT K=   0, I=   0, J=   0

 MAXIMUM STEPSIZE WHICH MEETS STABILITY CRITERION OF THE DISPERSION TERM
 = 0.4919E-01(WHEN MIN. R.F.=1)  AT K=   3, I=   2, J=  30


     1 CALLS TO GCG PACKAGE FOR TRANSPORT TIME STEP   1 IN FLOW TIME STEP  92 STRESS PERIOD   1
     5 TOTAL ITERATIONS
  MAXIMUM CONCENTRATION CHANGES FOR EACH ITERATION:
  MAX. CHANGE LAYER,ROW,COL MAX. CHANGE LAYER,ROW,COL MAX. CHANGE LAYER,ROW,COL MAX. CHANGE LAYER,ROW,COL MAX. CHANGE LAYER,ROW,COL
 ------------------------------------------------------------------------------------------------------------------------------------
   0.1754E-02 (  2,  1, 60)  0.6351E-04 (  3,  3, 35)  0.2282E-05 (  4,  2, 31)  0.2041E-06 (  3,  2, 31)  0.1187E-07 (  4,  2, 31)

 NO OUTPUT CONTROL FOR STRESS PERIOD    1   TIME STEP  92


                                          ================================================
                                                         FROM TIME =  0.92000     TO   0.93000    

 
 SOLVING FOR HEAD 
 FLOW MODEL IS TRANSIENT
 FLOW MODEL CONTAINS CONSTANT-HEAD CELLS


 MAXIMUM STEPSIZE DURING WHICH ANY PARTICLE CANNOT MOVE MORE THAN ONE CELL
 =  1.151    (WHEN MIN. R.F.=1)  AT K=   3, I=   2, J=  30

 MAXIMUM STEPSIZE WHICH MEETS STABILITY CRITERION OF THE ADVECTION TERM
 (FOR PURE FINITE-DIFFERENCE OPTION, MIXELM=0) 
 = 0.9130    (WHEN MIN. R.F.=1)  AT K=   3, I=   2, J=  31


 TOTAL NUMBER OF POINT SOURCES/SINKS PRESENT IN THE FLOW MODEL =   240

 MAXIMUM STEPSIZE WHICH MEETS STABILITY CRITERION OF THE SINK & SOURCE TERM
 = 0.1000E+31(WHEN MIN. R.F.=1)  AT K=   0, I=   0, J=   0

 MAXIMUM STEPSIZE WHICH MEETS STABILITY CRITERION OF THE DISPERSION TERM
 = 0.4920E-01(WHEN MIN. R.F.=1)  AT K=   3, I=   2, J=  30


     1 CALLS TO GCG PACKAGE FOR TRANSPORT TIME STEP   1 IN FLOW TIME STEP  93 STRESS PERIOD   1
     5 TOTAL ITERATIONS
  MAXIMUM CONCENTRATION CHANGES FOR EACH ITERATION:
  MAX. CHANGE LAYER,ROW,COL MAX. CHANGE LAYER,ROW,COL MAX. CHANGE LAYER,ROW,COL MAX. CHANGE LAYER,ROW,COL MAX. CHANGE LAYER,ROW,COL
 ------------------------------------------------------------------------------------------------------------------------------------
   0.1746E-02 (  2,  1, 60)  0.6311E-04 (  3,  3, 35)  0.2268E-05 (  4,  2, 31)  0.2028E-06 (  3,  2, 31)  0.1179E-07 (  4,  2, 31)

 NO OUTPUT CONTROL FOR STRESS PERIOD    1   TIME STEP  93


                                          ================================================
                                                         FROM TIME =  0.93000     TO   0.94000    

 
 SOLVING FOR HEAD 
 FLOW MODEL IS TRANSIENT
 FLOW MODEL CONTAINS CONSTANT-HEAD CELLS


 MAXIMUM STEPSIZE DURING WHICH ANY PARTICLE CANNOT MOVE MORE THAN ONE CELL
 =  1.152    (WHEN MIN. R.F.=1)  AT K=   3, I=   2, J=  30

 MAXIMUM STEPSIZE WHICH MEETS STABILITY CRITERION OF THE ADVECTION TERM
 (FOR PURE FINITE-DIFFERENCE OPTION, MIXELM=0) 
 = 0.9132    (WHEN MIN. R.F.=1)  AT K=   3, I=   2, J=  31


 TOTAL NUMBER OF POINT SOURCES/SINKS PRESENT IN THE FLOW MODEL =   240

 MAXIMUM STEPSIZE WHICH MEETS STABILITY CRITERION OF THE SINK & SOURCE TERM
 = 0.1000E+31(WHEN MIN. R.F.=1)  AT K=   0, I=   0, J=   0

 MAXIMUM STEPSIZE WHICH MEETS STABILITY CRITERION OF THE DISPERSION TERM
 = 0.4921E-01(WHEN MIN. R.F.=1)  AT K=   3, I=   2, J=  30


     1 CALLS TO GCG PACKAGE FOR TRANSPORT TIME STEP   1 IN FLOW TIME STEP  94 STRESS PERIOD   1
     5 TOTAL ITERATIONS
  MAXIMUM CONCENTRATION CHANGES FOR EACH ITERATION:
  MAX. CHANGE LAYER,ROW,COL MAX. CHANGE LAYER,ROW,COL MAX. CHANGE LAYER,ROW,COL MAX. CHANGE LAYER,ROW,COL MAX. CHANGE LAYER,ROW,COL
 ------------------------------------------------------------------------------------------------------------------------------------
   0.1737E-02 (  2,  1, 60)  0.6271E-04 (  3,  3, 35)  0.2254E-05 (  4,  2, 31)  0.2016E-06 (  3,  2, 31)  0.1172E-07 (  4,  2, 31)

 NO OUTPUT CONTROL FOR STRESS PERIOD    1   TIME STEP  94


                                          ================================================
                                                         FROM TIME =  0.94000     TO   0.95000    

 
 SOLVING FOR HEAD 
 FLOW MODEL IS TRANSIENT
 FLOW MODEL CONTAINS CONSTANT-HEAD CELLS


 MAXIMUM STEPSIZE DURING WHICH ANY PARTICLE CANNOT MOVE MORE THAN ONE CELL
 =  1.152    (WHEN MIN. R.F.=1)  AT K=   3, I=   2, J=  30

 MAXIMUM STEPSIZE WHICH MEETS STABILITY CRITERION OF THE ADVECTION TERM
 (FOR PURE FINITE-DIFFERENCE OPTION, MIXELM=0) 
 = 0.9134    (WHEN MIN. R.F.=1)  AT K=   3, I=   2, J=  31


 TOTAL NUMBER OF POINT SOURCES/SINKS PRESENT IN THE FLOW MODEL =   240

 MAXIMUM STEPSIZE WHICH MEETS STABILITY CRITERION OF THE SINK & SOURCE TERM
 = 0.1000E+31(WHEN MIN. R.F.=1)  AT K=   0, I=   0, J=   0

 MAXIMUM STEPSIZE WHICH MEETS STABILITY CRITERION OF THE DISPERSION TERM
 = 0.4923E-01(WHEN MIN. R.F.=1)  AT K=   3, I=   2, J=  30


     1 CALLS TO GCG PACKAGE FOR TRANSPORT TIME STEP   1 IN FLOW TIME STEP  95 STRESS PERIOD   1
     5 TOTAL ITERATIONS
  MAXIMUM CONCENTRATION CHANGES FOR EACH ITERATION:
  MAX. CHANGE LAYER,ROW,COL MAX. CHANGE LAYER,ROW,COL MAX. CHANGE LAYER,ROW,COL MAX. CHANGE LAYER,ROW,COL MAX. CHANGE LAYER,ROW,COL
 ------------------------------------------------------------------------------------------------------------------------------------
   0.1728E-02 (  2,  1, 60)  0.6231E-04 (  3,  3, 35)  0.2241E-05 (  4,  2, 31)  0.2005E-06 (  3,  2, 31)  0.1165E-07 (  4,  2, 31)

 NO OUTPUT CONTROL FOR STRESS PERIOD    1   TIME STEP  95


                                          ================================================
                                                         FROM TIME =  0.95000     TO   0.96000    

 
 SOLVING FOR HEAD 
 FLOW MODEL IS TRANSIENT
 FLOW MODEL CONTAINS CONSTANT-HEAD CELLS


 MAXIMUM STEPSIZE DURING WHICH ANY PARTICLE CANNOT MOVE MORE THAN ONE CELL
 =  1.152    (WHEN MIN. R.F.=1)  AT K=   3, I=   2, J=  30

 MAXIMUM STEPSIZE WHICH MEETS STABILITY CRITERION OF THE ADVECTION TERM
 (FOR PURE FINITE-DIFFERENCE OPTION, MIXELM=0) 
 = 0.9136    (WHEN MIN. R.F.=1)  AT K=   3, I=   2, J=  31


 TOTAL NUMBER OF POINT SOURCES/SINKS PRESENT IN THE FLOW MODEL =   240

 MAXIMUM STEPSIZE WHICH MEETS STABILITY CRITERION OF THE SINK & SOURCE TERM
 = 0.1000E+31(WHEN MIN. R.F.=1)  AT K=   0, I=   0, J=   0

 MAXIMUM STEPSIZE WHICH MEETS STABILITY CRITERION OF THE DISPERSION TERM
 = 0.4924E-01(WHEN MIN. R.F.=1)  AT K=   3, I=   2, J=  30


     1 CALLS TO GCG PACKAGE FOR TRANSPORT TIME STEP   1 IN FLOW TIME STEP  96 STRESS PERIOD   1
     5 TOTAL ITERATIONS
  MAXIMUM CONCENTRATION CHANGES FOR EACH ITERATION:
  MAX. CHANGE LAYER,ROW,COL MAX. CHANGE LAYER,ROW,COL MAX. CHANGE LAYER,ROW,COL MAX. CHANGE LAYER,ROW,COL MAX. CHANGE LAYER,ROW,COL
 ------------------------------------------------------------------------------------------------------------------------------------
   0.1719E-02 (  2,  1, 60)  0.6192E-04 (  3,  3, 35)  0.2228E-05 (  4,  2, 31)  0.1993E-06 (  3,  2, 31)  0.1158E-07 (  4,  2, 31)

 NO OUTPUT CONTROL FOR STRESS PERIOD    1   TIME STEP  96


                                          ================================================
                                                         FROM TIME =  0.96000     TO   0.97000    

 
 SOLVING FOR HEAD 
 FLOW MODEL IS TRANSIENT
 FLOW MODEL CONTAINS CONSTANT-HEAD CELLS


 MAXIMUM STEPSIZE DURING WHICH ANY PARTICLE CANNOT MOVE MORE THAN ONE CELL
 =  1.152    (WHEN MIN. R.F.=1)  AT K=   3, I=   2, J=  30

 MAXIMUM STEPSIZE WHICH MEETS STABILITY CRITERION OF THE ADVECTION TERM
 (FOR PURE FINITE-DIFFERENCE OPTION, MIXELM=0) 
 = 0.9138    (WHEN MIN. R.F.=1)  AT K=   3, I=   2, J=  31


 TOTAL NUMBER OF POINT SOURCES/SINKS PRESENT IN THE FLOW MODEL =   240

 MAXIMUM STEPSIZE WHICH MEETS STABILITY CRITERION OF THE SINK & SOURCE TERM
 = 0.1000E+31(WHEN MIN. R.F.=1)  AT K=   0, I=   0, J=   0

 MAXIMUM STEPSIZE WHICH MEETS STABILITY CRITERION OF THE DISPERSION TERM
 = 0.4925E-01(WHEN MIN. R.F.=1)  AT K=   3, I=   2, J=  30


     1 CALLS TO GCG PACKAGE FOR TRANSPORT TIME STEP   1 IN FLOW TIME STEP  97 STRESS PERIOD   1
     5 TOTAL ITERATIONS
  MAXIMUM CONCENTRATION CHANGES FOR EACH ITERATION:
  MAX. CHANGE LAYER,ROW,COL MAX. CHANGE LAYER,ROW,COL MAX. CHANGE LAYER,ROW,COL MAX. CHANGE LAYER,ROW,COL MAX. CHANGE LAYER,ROW,COL
 ------------------------------------------------------------------------------------------------------------------------------------
   0.1710E-02 (  2,  1, 60)  0.6154E-04 (  3,  3, 35)  0.2215E-05 (  4,  2, 31)  0.1981E-06 (  3,  2, 31)  0.1152E-07 (  4,  2, 31)

 NO OUTPUT CONTROL FOR STRESS PERIOD    1   TIME STEP  97


                                          ================================================
                                                         FROM TIME =  0.97000     TO   0.98000    

 
 SOLVING FOR HEAD 
 FLOW MODEL IS TRANSIENT
 FLOW MODEL CONTAINS CONSTANT-HEAD CELLS


 MAXIMUM STEPSIZE DURING WHICH ANY PARTICLE CANNOT MOVE MORE THAN ONE CELL
 =  1.153    (WHEN MIN. R.F.=1)  AT K=   3, I=   2, J=  30

 MAXIMUM STEPSIZE WHICH MEETS STABILITY CRITERION OF THE ADVECTION TERM
 (FOR PURE FINITE-DIFFERENCE OPTION, MIXELM=0) 
 = 0.9140    (WHEN MIN. R.F.=1)  AT K=   3, I=   2, J=  31


 TOTAL NUMBER OF POINT SOURCES/SINKS PRESENT IN THE FLOW MODEL =   240

 MAXIMUM STEPSIZE WHICH MEETS STABILITY CRITERION OF THE SINK & SOURCE TERM
 = 0.1000E+31(WHEN MIN. R.F.=1)  AT K=   0, I=   0, J=   0

 MAXIMUM STEPSIZE WHICH MEETS STABILITY CRITERION OF THE DISPERSION TERM
 = 0.4927E-01(WHEN MIN. R.F.=1)  AT K=   3, I=   2, J=  30


     1 CALLS TO GCG PACKAGE FOR TRANSPORT TIME STEP   1 IN FLOW TIME STEP  98 STRESS PERIOD   1
     5 TOTAL ITERATIONS
  MAXIMUM CONCENTRATION CHANGES FOR EACH ITERATION:
  MAX. CHANGE LAYER,ROW,COL MAX. CHANGE LAYER,ROW,COL MAX. CHANGE LAYER,ROW,COL MAX. CHANGE LAYER,ROW,COL MAX. CHANGE LAYER,ROW,COL
 ------------------------------------------------------------------------------------------------------------------------------------
   0.1702E-02 (  2,  1, 60)  0.6116E-04 (  3,  3, 35)  0.2203E-05 (  4,  2, 31)  0.1970E-06 (  3,  2, 31)  0.1145E-07 (  4,  2, 31)

 NO OUTPUT CONTROL FOR STRESS PERIOD    1   TIME STEP  98


                                          ================================================
                                                         FROM TIME =  0.98000     TO   0.99000    

 
 SOLVING FOR HEAD 
 FLOW MODEL IS TRANSIENT
 FLOW MODEL CONTAINS CONSTANT-HEAD CELLS


 MAXIMUM STEPSIZE DURING WHICH ANY PARTICLE CANNOT MOVE MORE THAN ONE CELL
 =  1.153    (WHEN MIN. R.F.=1)  AT K=   3, I=   2, J=  30

 MAXIMUM STEPSIZE WHICH MEETS STABILITY CRITERION OF THE ADVECTION TERM
 (FOR PURE FINITE-DIFFERENCE OPTION, MIXELM=0) 
 = 0.9142    (WHEN MIN. R.F.=1)  AT K=   3, I=   2, J=  31


 TOTAL NUMBER OF POINT SOURCES/SINKS PRESENT IN THE FLOW MODEL =   240

 MAXIMUM STEPSIZE WHICH MEETS STABILITY CRITERION OF THE SINK & SOURCE TERM
 = 0.1000E+31(WHEN MIN. R.F.=1)  AT K=   0, I=   0, J=   0

 MAXIMUM STEPSIZE WHICH MEETS STABILITY CRITERION OF THE DISPERSION TERM
 = 0.4928E-01(WHEN MIN. R.F.=1)  AT K=   3, I=   2, J=  30


     1 CALLS TO GCG PACKAGE FOR TRANSPORT TIME STEP   1 IN FLOW TIME STEP  99 STRESS PERIOD   1
     5 TOTAL ITERATIONS
  MAXIMUM CONCENTRATION CHANGES FOR EACH ITERATION:
  MAX. CHANGE LAYER,ROW,COL MAX. CHANGE LAYER,ROW,COL MAX. CHANGE LAYER,ROW,COL MAX. CHANGE LAYER,ROW,COL MAX. CHANGE LAYER,ROW,COL
 ------------------------------------------------------------------------------------------------------------------------------------
   0.1693E-02 (  2,  1, 60)  0.6079E-04 (  3,  3, 35)  0.2190E-05 (  4,  2, 31)  0.1959E-06 (  3,  2, 31)  0.1138E-07 (  4,  2, 31)

 NO OUTPUT CONTROL FOR STRESS PERIOD    1   TIME STEP  99


                                          ================================================
                                                         FROM TIME =  0.99000     TO   1.00000    

 
 SOLVING FOR HEAD 
 FLOW MODEL IS TRANSIENT
 FLOW MODEL CONTAINS CONSTANT-HEAD CELLS


 MAXIMUM STEPSIZE DURING WHICH ANY PARTICLE CANNOT MOVE MORE THAN ONE CELL
 =  1.153    (WHEN MIN. R.F.=1)  AT K=   3, I=   2, J=  30

 MAXIMUM STEPSIZE WHICH MEETS STABILITY CRITERION OF THE ADVECTION TERM
 (FOR PURE FINITE-DIFFERENCE OPTION, MIXELM=0) 
 = 0.9144    (WHEN MIN. R.F.=1)  AT K=   3, I=   2, J=  31


 TOTAL NUMBER OF POINT SOURCES/SINKS PRESENT IN THE FLOW MODEL =   240

 MAXIMUM STEPSIZE WHICH MEETS STABILITY CRITERION OF THE SINK & SOURCE TERM
 = 0.1000E+31(WHEN MIN. R.F.=1)  AT K=   0, I=   0, J=   0

 MAXIMUM STEPSIZE WHICH MEETS STABILITY CRITERION OF THE DISPERSION TERM
 = 0.4929E-01(WHEN MIN. R.F.=1)  AT K=   3, I=   2, J=  30


     1 CALLS TO GCG PACKAGE FOR TRANSPORT TIME STEP   1 IN FLOW TIME STEP 100 STRESS PERIOD   1
     5 TOTAL ITERATIONS
  MAXIMUM CONCENTRATION CHANGES FOR EACH ITERATION:
  MAX. CHANGE LAYER,ROW,COL MAX. CHANGE LAYER,ROW,COL MAX. CHANGE LAYER,ROW,COL MAX. CHANGE LAYER,ROW,COL MAX. CHANGE LAYER,ROW,COL
 ------------------------------------------------------------------------------------------------------------------------------------
   0.1684E-02 (  2,  1, 60)  0.6042E-04 (  3,  3, 35)  0.2178E-05 (  4,  2, 31)  0.1948E-06 (  3,  2, 31)  0.1132E-07 (  4,  2, 31)

 NO OUTPUT CONTROL FOR STRESS PERIOD    1   TIME STEP 100



 >>>>>>>>>>>>>>>>>>>>>>>>>>>>>>>>>>>>>>>>>>>>>>>>>>>>>>>FOR COMPONENT NO. 01<<<<<<<<<<<<<<<<<<<<<<<<<<<<<<<<<<<<<<<<<<<<<<<<<<<<<<<


                                            -------------------------------------------
                                                      TRANSPORT STEP NO.    1
                                            -------------------------------------------

 TOTAL ELAPSED TIME SINCE BEGINNING OF SIMULATION =  1.0000000    D   
 .....................................................................

                     CUMULATIVE MASS BUDGETS AT END OF TRANSPORT STEP    1, TIME STEP  100, STRESS PERIOD    1
                     ------------------------------------------------------------------------------------------

                                                             IN                           OUT
                                                      ----------------             ----------------
                               CONSTANT CONCENTRATION:    438.6073                   -5.361429    
                                        CONSTANT HEAD:    0.000000                    0.000000    
                               MASS STOR (FLOW MODEL):    0.000000                    0.000000    
                                MASS STORAGE (SOLUTE):    0.000000                   -433.2459    
                            ---------------------------------------------------------------------------
                                              [TOTAL]:    438.6073     KG            -438.6073     KG  

                                                          NET (IN - OUT):   0.1508920E-05
                                                   DISCREPANCY (PERCENT):   0.3440252E-06
1
  MASS BUDGET FOR ENTIRE MODEL AT END OF TIME STEP100 IN STRESS PERIOD   1
  ------------------------------------------------------------------------------

     CUMULATIVE MASS      M       RATES FOR THIS TIME STEP      M/T
     ------------------                 ------------------------

           IN:                                      IN:
           ---                                      ---
             STORAGE =           0.0000               STORAGE =           0.0000
       CONSTANT HEAD =        1656.3944         CONSTANT HEAD =        1641.2592
                DCDT =           0.0000                  DCDT =           0.0000

            TOTAL IN =        1656.3944              TOTAL IN =        1641.2592

          OUT:                                     OUT:
          ----                                     ----
             STORAGE =           0.0000               STORAGE =           0.0000
       CONSTANT HEAD =        1346.3579         CONSTANT HEAD =        1357.8755
                DCDT =         310.0363                  DCDT =         283.3836

           TOTAL OUT =        1656.3942             TOTAL OUT =        1641.2591

            IN - OUT =       1.7315E-04              IN - OUT =       1.7134E-04

 PERCENT DISCREPANCY =           0.00     PERCENT DISCREPANCY =           0.00



0


          TIME SUMMARY AT END OF TRANSPORT STEP    1 IN TIME STEP  100 IN STRESS PERIOD   1
                    SECONDS     MINUTES      HOURS       DAYS        YEARS
                    -----------------------------------------------------------
  TRANS STEP LENGTH  864.00      14.400     0.24000     1.00000E-02 2.73785E-05
   TIME STEP LENGTH  864.00      14.400     0.24000     1.00000E-02 2.73785E-05
 STRESS PERIOD TIME  86400.      1440.0      24.000     1.00000     2.73785E-03
         TOTAL TIME  86400.      1440.0      24.000     1.00000     2.73785E-03
1


                                   ++++++++++++++++++++++++++++++++++++++++++++++++++++++++++++++
                                                       STRESS PERIOD NO.  002
                                   ++++++++++++++++++++++++++++++++++++++++++++++++++++++++++++++


 LENGTH OF CURRENT STRESS PERIOD =  100.00000    
 NUMBER OF TIME STEPS FOR CURRENT STRESS PERIOD =  100
 TIME STEP MULTIPLIER USED IN FLOW SOLUTION =  1.0000000    
 USER-SPECIFIED TRANSPORT STEPSIZE =   0.000000    D   
 MAXIMUM NUMBER OF TRANSPORT STEPS ALLOWED  IN ONE FLOW TIME STEP =     50000
 MULTIPLIER FOR SUCCESSIVE TRANSPORT STEPS  [USED IN IMPLICIT SCHEMES] =     1.000
 MAXIMUM TRANSPORT STEP SIZE  [USED IN IMPLICIT SCHEMES] =   0.000000    D   
1
                            STRESS PERIOD NO.    2, LENGTH =  100.00000    
                            -----------------------------------------------

                              NUMBER OF TIME STEPS =   100

                               MULTIPLIER FOR DELT =     1.000

                            INITIAL TIME STEP SIZE =  1.0000000    

 NO. OF POINT SINKS/SOURCES OF SPECIFIED CONCONCENTRATIONS =    0 IN STRESS PERIOD  2

 CHD NO.   LAYER   ROW   COL    START HEAD        END HEAD         
 ------------------------------------------------------------------
      1      1      1     31       19.50           19.50    
      2      1      1     32       19.50           19.50    
      3      1      1     33       19.50           19.50    
      4      1      1     34       19.50           19.50    
      5      1      1     35       19.50           19.50    
      6      1      1     36       19.50           19.50    
      7      1      1     37       19.50           19.50    
      8      1      1     38       19.50           19.50    
      9      1      1     39       19.50           19.50    
     10      1      1     40       19.50           19.50    
     11      1      1     41       19.50           19.50    
     12      1      1     42       19.50           19.50    
     13      1      1     43       19.50           19.50    
     14      1      1     44       19.50           19.50    
     15      1      1     45       19.50           19.50    
     16      1      1     46       19.50           19.50    
     17      1      1     47       19.50           19.50    
     18      1      1     48       19.50           19.50    
     19      1      1     49       19.50           19.50    
     20      1      1     50       19.50           19.50    
     21      1      1     51       19.50           19.50    
     22      1      1     52       19.50           19.50    
     23      1      1     53       19.50           19.50    
     24      1      1     54       19.50           19.50    
     25      1      1     55       19.50           19.50    
     26      1      1     56       19.50           19.50    
     27      1      1     57       19.50           19.50    
     28      1      1     58       19.50           19.50    
     29      1      1     59       19.50           19.50    
     30      1      1     60       19.50           19.50    
     31      1      1     61       19.50           19.50    
     32      1      1     62       19.50           19.50    
     33      1      1     63       19.50           19.50    
     34      1      1     64       19.50           19.50    
     35      1      1     65       19.50           19.50    
     36      1      1     66       19.50           19.50    
     37      1      1     67       19.50           19.50    
     38      1      1     68       19.50           19.50    
     39      1      1     69       19.50           19.50    
     40      1      1     70       19.50           19.50    
     41      1      2     31       19.50           19.50    
     42      1      2     32       19.50           19.50    
     43      1      2     33       19.50           19.50    
     44      1      2     34       19.50           19.50    
     45      1      2     35       19.50           19.50    
     46      1      2     36       19.50           19.50    
     47      1      2     37       19.50           19.50    
     48      1      2     38       19.50           19.50    
     49      1      2     39       19.50           19.50    
     50      1      2     40       19.50           19.50    
     51      1      2     41       19.50           19.50    
     52      1      2     42       19.50           19.50    
     53      1      2     43       19.50           19.50    
     54      1      2     44       19.50           19.50    
     55      1      2     45       19.50           19.50    
     56      1      2     46       19.50           19.50    
     57      1      2     47       19.50           19.50    
     58      1      2     48       19.50           19.50    
     59      1      2     49       19.50           19.50    
     60      1      2     50       19.50           19.50    
     61      1      2     51       19.50           19.50    
     62      1      2     52       19.50           19.50    
     63      1      2     53       19.50           19.50    
     64      1      2     54       19.50           19.50    
     65      1      2     55       19.50           19.50    
     66      1      2     56       19.50           19.50    
     67      1      2     57       19.50           19.50    
     68      1      2     58       19.50           19.50    
     69      1      2     59       19.50           19.50    
     70      1      2     60       19.50           19.50    
     71      1      2     61       19.50           19.50    
     72      1      2     62       19.50           19.50    
     73      1      2     63       19.50           19.50    
     74      1      2     64       19.50           19.50    
     75      1      2     65       19.50           19.50    
     76      1      2     66       19.50           19.50    
     77      1      2     67       19.50           19.50    
     78      1      2     68       19.50           19.50    
     79      1      2     69       19.50           19.50    
     80      1      2     70       19.50           19.50    
     81      1      3     31       19.50           19.50    
     82      1      3     32       19.50           19.50    
     83      1      3     33       19.50           19.50    
     84      1      3     34       19.50           19.50    
     85      1      3     35       19.50           19.50    
     86      1      3     36       19.50           19.50    
     87      1      3     37       19.50           19.50    
     88      1      3     38       19.50           19.50    
     89      1      3     39       19.50           19.50    
     90      1      3     40       19.50           19.50    
     91      1      3     41       19.50           19.50    
     92      1      3     42       19.50           19.50    
     93      1      3     43       19.50           19.50    
     94      1      3     44       19.50           19.50    
     95      1      3     45       19.50           19.50    
     96      1      3     46       19.50           19.50    
     97      1      3     47       19.50           19.50    
     98      1      3     48       19.50           19.50    
     99      1      3     49       19.50           19.50    
    100      1      3     50       19.50           19.50    
    101      1      3     51       19.50           19.50    
    102      1      3     52       19.50           19.50    
    103      1      3     53       19.50           19.50    
    104      1      3     54       19.50           19.50    
    105      1      3     55       19.50           19.50    
    106      1      3     56       19.50           19.50    
    107      1      3     57       19.50           19.50    
    108      1      3     58       19.50           19.50    
    109      1      3     59       19.50           19.50    
    110      1      3     60       19.50           19.50    
    111      1      3     61       19.50           19.50    
    112      1      3     62       19.50           19.50    
    113      1      3     63       19.50           19.50    
    114      1      3     64       19.50           19.50    
    115      1      3     65       19.50           19.50    
    116      1      3     66       19.50           19.50    
    117      1      3     67       19.50           19.50    
    118      1      3     68       19.50           19.50    
    119      1      3     69       19.50           19.50    
    120      1      3     70       19.50           19.50    


    120 TIME-VARIANT SPECIFIED-HEAD CELLS


                                          ================================================
                                                         FROM TIME =  1.00000     TO    2.0000    

 
 SOLVING FOR HEAD 
 FLOW MODEL IS TRANSIENT
 FLOW MODEL CONTAINS CONSTANT-HEAD CELLS


 MAXIMUM STEPSIZE DURING WHICH ANY PARTICLE CANNOT MOVE MORE THAN ONE CELL
 = 0.1705    (WHEN MIN. R.F.=1)  AT K=   3, I=   2, J=  30

 MAXIMUM STEPSIZE WHICH MEETS STABILITY CRITERION OF THE ADVECTION TERM
 (FOR PURE FINITE-DIFFERENCE OPTION, MIXELM=0) 
 = 0.1349    (WHEN MIN. R.F.=1)  AT K=   3, I=   2, J=  31


 TOTAL NUMBER OF POINT SOURCES/SINKS PRESENT IN THE FLOW MODEL =   240

 MAXIMUM STEPSIZE WHICH MEETS STABILITY CRITERION OF THE SINK & SOURCE TERM
 = 0.1000E+31(WHEN MIN. R.F.=1)  AT K=   0, I=   0, J=   0

 MAXIMUM STEPSIZE WHICH MEETS STABILITY CRITERION OF THE DISPERSION TERM
 = 0.7302E-02(WHEN MIN. R.F.=1)  AT K=   3, I=   2, J=  30


     1 CALLS TO GCG PACKAGE FOR TRANSPORT TIME STEP   1 IN FLOW TIME STEP   1 STRESS PERIOD   2
    61 TOTAL ITERATIONS

 NO OUTPUT CONTROL FOR STRESS PERIOD    2   TIME STEP   1
0WARNING: NUMERICAL OSCILLATION ENCOUNTERED
 ONE OR MORE CELL CONCENTRATIONS LESS THAN CRHOREF
 SMALLEST DENSITY =  0.100E+04
 AT CELL (I,J,K) = (   1,  66,  17)

 
 SOLVING FOR HEAD 
 FLOW MODEL IS TRANSIENT
 FLOW MODEL CONTAINS CONSTANT-HEAD CELLS


 MAXIMUM STEPSIZE DURING WHICH ANY PARTICLE CANNOT MOVE MORE THAN ONE CELL
 = 0.1673    (WHEN MIN. R.F.=1)  AT K=   3, I=   2, J=  30

 MAXIMUM STEPSIZE WHICH MEETS STABILITY CRITERION OF THE ADVECTION TERM
 (FOR PURE FINITE-DIFFERENCE OPTION, MIXELM=0) 
 = 0.1326    (WHEN MIN. R.F.=1)  AT K=   3, I=   2, J=  31


 TOTAL NUMBER OF POINT SOURCES/SINKS PRESENT IN THE FLOW MODEL =   240

 MAXIMUM STEPSIZE WHICH MEETS STABILITY CRITERION OF THE SINK & SOURCE TERM
 = 0.1000E+31(WHEN MIN. R.F.=1)  AT K=   0, I=   0, J=   0

 MAXIMUM STEPSIZE WHICH MEETS STABILITY CRITERION OF THE DISPERSION TERM
 = 0.7140E-02(WHEN MIN. R.F.=1)  AT K=   3, I=   2, J=  30
     1 CALLS TO GCG PACKAGE FOR TRANSPORT TIME STEP   2 IN FLOW TIME STEP   1 STRESS PERIOD   2
    25 TOTAL ITERATIONS
0WARNING: NUMERICAL OSCILLATION ENCOUNTERED
 ONE OR MORE CELL CONCENTRATIONS LESS THAN CRHOREF
 SMALLEST DENSITY =  0.100E+04
 AT CELL (I,J,K) = (   1,  66,  17)

 
 SOLVING FOR HEAD 
 FLOW MODEL IS TRANSIENT
 FLOW MODEL CONTAINS CONSTANT-HEAD CELLS


 MAXIMUM STEPSIZE DURING WHICH ANY PARTICLE CANNOT MOVE MORE THAN ONE CELL
 = 0.1677    (WHEN MIN. R.F.=1)  AT K=   3, I=   2, J=  30

 MAXIMUM STEPSIZE WHICH MEETS STABILITY CRITERION OF THE ADVECTION TERM
 (FOR PURE FINITE-DIFFERENCE OPTION, MIXELM=0) 
 = 0.1330    (WHEN MIN. R.F.=1)  AT K=   3, I=   2, J=  31


 TOTAL NUMBER OF POINT SOURCES/SINKS PRESENT IN THE FLOW MODEL =   240

 MAXIMUM STEPSIZE WHICH MEETS STABILITY CRITERION OF THE SINK & SOURCE TERM
 = 0.1000E+31(WHEN MIN. R.F.=1)  AT K=   0, I=   0, J=   0

 MAXIMUM STEPSIZE WHICH MEETS STABILITY CRITERION OF THE DISPERSION TERM
 = 0.7161E-02(WHEN MIN. R.F.=1)  AT K=   3, I=   2, J=  30
     1 CALLS TO GCG PACKAGE FOR TRANSPORT TIME STEP   3 IN FLOW TIME STEP   1 STRESS PERIOD   2
     7 TOTAL ITERATIONS
  MAXIMUM CONCENTRATION CHANGES FOR EACH ITERATION:
  MAX. CHANGE LAYER,ROW,COL MAX. CHANGE LAYER,ROW,COL MAX. CHANGE LAYER,ROW,COL MAX. CHANGE LAYER,ROW,COL MAX. CHANGE LAYER,ROW,COL
 ------------------------------------------------------------------------------------------------------------------------------------
   0.2563E-02 (  4,  1, 41)  0.3465E-03 (  4,  2, 38)  0.5080E-04 (  4,  2, 37)  0.1336E-04 (  3,  2, 31)  0.2878E-05 (  4,  2, 31)
   0.7318E-06 (  3,  2, 31)  0.9861E-07 (  3,  2, 30)
0WARNING: NUMERICAL OSCILLATION ENCOUNTERED
 ONE OR MORE CELL CONCENTRATIONS LESS THAN CRHOREF
 SMALLEST DENSITY =  0.100E+04
 AT CELL (I,J,K) = (   1,  66,  17)



                                          ================================================
                                                         FROM TIME =   2.0000     TO    3.0000    

 
 SOLVING FOR HEAD 
 FLOW MODEL IS TRANSIENT
 FLOW MODEL CONTAINS CONSTANT-HEAD CELLS


 MAXIMUM STEPSIZE DURING WHICH ANY PARTICLE CANNOT MOVE MORE THAN ONE CELL
 = 0.1678    (WHEN MIN. R.F.=1)  AT K=   3, I=   2, J=  30

 MAXIMUM STEPSIZE WHICH MEETS STABILITY CRITERION OF THE ADVECTION TERM
 (FOR PURE FINITE-DIFFERENCE OPTION, MIXELM=0) 
 = 0.1330    (WHEN MIN. R.F.=1)  AT K=   3, I=   2, J=  31


 TOTAL NUMBER OF POINT SOURCES/SINKS PRESENT IN THE FLOW MODEL =   240

 MAXIMUM STEPSIZE WHICH MEETS STABILITY CRITERION OF THE SINK & SOURCE TERM
 = 0.1000E+31(WHEN MIN. R.F.=1)  AT K=   0, I=   0, J=   0

 MAXIMUM STEPSIZE WHICH MEETS STABILITY CRITERION OF THE DISPERSION TERM
 = 0.7163E-02(WHEN MIN. R.F.=1)  AT K=   3, I=   2, J=  30


     1 CALLS TO GCG PACKAGE FOR TRANSPORT TIME STEP   1 IN FLOW TIME STEP   2 STRESS PERIOD   2
    25 TOTAL ITERATIONS

 NO OUTPUT CONTROL FOR STRESS PERIOD    2   TIME STEP   2
0WARNING: NUMERICAL OSCILLATION ENCOUNTERED
 ONE OR MORE CELL CONCENTRATIONS LESS THAN CRHOREF
 SMALLEST DENSITY =  0.100E+04
 AT CELL (I,J,K) = (   1,  66,  17)

 
 SOLVING FOR HEAD 
 FLOW MODEL IS TRANSIENT
 FLOW MODEL CONTAINS CONSTANT-HEAD CELLS


 MAXIMUM STEPSIZE DURING WHICH ANY PARTICLE CANNOT MOVE MORE THAN ONE CELL
 = 0.1681    (WHEN MIN. R.F.=1)  AT K=   3, I=   2, J=  30

 MAXIMUM STEPSIZE WHICH MEETS STABILITY CRITERION OF THE ADVECTION TERM
 (FOR PURE FINITE-DIFFERENCE OPTION, MIXELM=0) 
 = 0.1333    (WHEN MIN. R.F.=1)  AT K=   3, I=   2, J=  31


 TOTAL NUMBER OF POINT SOURCES/SINKS PRESENT IN THE FLOW MODEL =   240

 MAXIMUM STEPSIZE WHICH MEETS STABILITY CRITERION OF THE SINK & SOURCE TERM
 = 0.1000E+31(WHEN MIN. R.F.=1)  AT K=   0, I=   0, J=   0

 MAXIMUM STEPSIZE WHICH MEETS STABILITY CRITERION OF THE DISPERSION TERM
 = 0.7180E-02(WHEN MIN. R.F.=1)  AT K=   3, I=   2, J=  30
     1 CALLS TO GCG PACKAGE FOR TRANSPORT TIME STEP   2 IN FLOW TIME STEP   2 STRESS PERIOD   2
    25 TOTAL ITERATIONS
0WARNING: NUMERICAL OSCILLATION ENCOUNTERED
 ONE OR MORE CELL CONCENTRATIONS LESS THAN CRHOREF
 SMALLEST DENSITY =  0.100E+04
 AT CELL (I,J,K) = (   1,  66,  17)

 
 SOLVING FOR HEAD 
 FLOW MODEL IS TRANSIENT
 FLOW MODEL CONTAINS CONSTANT-HEAD CELLS


 MAXIMUM STEPSIZE DURING WHICH ANY PARTICLE CANNOT MOVE MORE THAN ONE CELL
 = 0.1684    (WHEN MIN. R.F.=1)  AT K=   3, I=   2, J=  30

 MAXIMUM STEPSIZE WHICH MEETS STABILITY CRITERION OF THE ADVECTION TERM
 (FOR PURE FINITE-DIFFERENCE OPTION, MIXELM=0) 
 = 0.1335    (WHEN MIN. R.F.=1)  AT K=   3, I=   2, J=  31


 TOTAL NUMBER OF POINT SOURCES/SINKS PRESENT IN THE FLOW MODEL =   240

 MAXIMUM STEPSIZE WHICH MEETS STABILITY CRITERION OF THE SINK & SOURCE TERM
 = 0.1000E+31(WHEN MIN. R.F.=1)  AT K=   0, I=   0, J=   0

 MAXIMUM STEPSIZE WHICH MEETS STABILITY CRITERION OF THE DISPERSION TERM
 = 0.7193E-02(WHEN MIN. R.F.=1)  AT K=   3, I=   2, J=  30
     1 CALLS TO GCG PACKAGE FOR TRANSPORT TIME STEP   3 IN FLOW TIME STEP   2 STRESS PERIOD   2
    25 TOTAL ITERATIONS
0WARNING: NUMERICAL OSCILLATION ENCOUNTERED
 ONE OR MORE CELL CONCENTRATIONS LESS THAN CRHOREF
 SMALLEST DENSITY =  0.100E+04
 AT CELL (I,J,K) = (   1,  66,  17)

 
 SOLVING FOR HEAD 
 FLOW MODEL IS TRANSIENT
 FLOW MODEL CONTAINS CONSTANT-HEAD CELLS


 MAXIMUM STEPSIZE DURING WHICH ANY PARTICLE CANNOT MOVE MORE THAN ONE CELL
 = 0.1686    (WHEN MIN. R.F.=1)  AT K=   3, I=   2, J=  30

 MAXIMUM STEPSIZE WHICH MEETS STABILITY CRITERION OF THE ADVECTION TERM
 (FOR PURE FINITE-DIFFERENCE OPTION, MIXELM=0) 
 = 0.1336    (WHEN MIN. R.F.=1)  AT K=   3, I=   2, J=  31


 TOTAL NUMBER OF POINT SOURCES/SINKS PRESENT IN THE FLOW MODEL =   240

 MAXIMUM STEPSIZE WHICH MEETS STABILITY CRITERION OF THE SINK & SOURCE TERM
 = 0.1000E+31(WHEN MIN. R.F.=1)  AT K=   0, I=   0, J=   0

 MAXIMUM STEPSIZE WHICH MEETS STABILITY CRITERION OF THE DISPERSION TERM
 = 0.7205E-02(WHEN MIN. R.F.=1)  AT K=   3, I=   2, J=  30
     1 CALLS TO GCG PACKAGE FOR TRANSPORT TIME STEP   4 IN FLOW TIME STEP   2 STRESS PERIOD   2
    25 TOTAL ITERATIONS
0WARNING: NUMERICAL OSCILLATION ENCOUNTERED
 ONE OR MORE CELL CONCENTRATIONS LESS THAN CRHOREF
 SMALLEST DENSITY =  0.100E+04
 AT CELL (I,J,K) = (   1,  66,  17)

 
 SOLVING FOR HEAD 
 FLOW MODEL IS TRANSIENT
 FLOW MODEL CONTAINS CONSTANT-HEAD CELLS


 MAXIMUM STEPSIZE DURING WHICH ANY PARTICLE CANNOT MOVE MORE THAN ONE CELL
 = 0.1688    (WHEN MIN. R.F.=1)  AT K=   3, I=   2, J=  30

 MAXIMUM STEPSIZE WHICH MEETS STABILITY CRITERION OF THE ADVECTION TERM
 (FOR PURE FINITE-DIFFERENCE OPTION, MIXELM=0) 
 = 0.1338    (WHEN MIN. R.F.=1)  AT K=   3, I=   2, J=  31


 TOTAL NUMBER OF POINT SOURCES/SINKS PRESENT IN THE FLOW MODEL =   240

 MAXIMUM STEPSIZE WHICH MEETS STABILITY CRITERION OF THE SINK & SOURCE TERM
 = 0.1000E+31(WHEN MIN. R.F.=1)  AT K=   0, I=   0, J=   0

 MAXIMUM STEPSIZE WHICH MEETS STABILITY CRITERION OF THE DISPERSION TERM
 = 0.7215E-02(WHEN MIN. R.F.=1)  AT K=   3, I=   2, J=  30
     1 CALLS TO GCG PACKAGE FOR TRANSPORT TIME STEP   5 IN FLOW TIME STEP   2 STRESS PERIOD   2
    24 TOTAL ITERATIONS
0WARNING: NUMERICAL OSCILLATION ENCOUNTERED
 ONE OR MORE CELL CONCENTRATIONS LESS THAN CRHOREF
 SMALLEST DENSITY =  0.100E+04
 AT CELL (I,J,K) = (   1,  66,  17)

 
 SOLVING FOR HEAD 
 FLOW MODEL IS TRANSIENT
 FLOW MODEL CONTAINS CONSTANT-HEAD CELLS


 MAXIMUM STEPSIZE DURING WHICH ANY PARTICLE CANNOT MOVE MORE THAN ONE CELL
 = 0.1689    (WHEN MIN. R.F.=1)  AT K=   3, I=   2, J=  30

 MAXIMUM STEPSIZE WHICH MEETS STABILITY CRITERION OF THE ADVECTION TERM
 (FOR PURE FINITE-DIFFERENCE OPTION, MIXELM=0) 
 = 0.1339    (WHEN MIN. R.F.=1)  AT K=   3, I=   2, J=  31


 TOTAL NUMBER OF POINT SOURCES/SINKS PRESENT IN THE FLOW MODEL =   240

 MAXIMUM STEPSIZE WHICH MEETS STABILITY CRITERION OF THE SINK & SOURCE TERM
 = 0.1000E+31(WHEN MIN. R.F.=1)  AT K=   0, I=   0, J=   0

 MAXIMUM STEPSIZE WHICH MEETS STABILITY CRITERION OF THE DISPERSION TERM
 = 0.7223E-02(WHEN MIN. R.F.=1)  AT K=   3, I=   2, J=  30
     1 CALLS TO GCG PACKAGE FOR TRANSPORT TIME STEP   6 IN FLOW TIME STEP   2 STRESS PERIOD   2
    24 TOTAL ITERATIONS
0WARNING: NUMERICAL OSCILLATION ENCOUNTERED
 ONE OR MORE CELL CONCENTRATIONS LESS THAN CRHOREF
 SMALLEST DENSITY =  0.100E+04
 AT CELL (I,J,K) = (   1,  66,  17)

 
 SOLVING FOR HEAD 
 FLOW MODEL IS TRANSIENT
 FLOW MODEL CONTAINS CONSTANT-HEAD CELLS


 MAXIMUM STEPSIZE DURING WHICH ANY PARTICLE CANNOT MOVE MORE THAN ONE CELL
 = 0.1691    (WHEN MIN. R.F.=1)  AT K=   3, I=   2, J=  30

 MAXIMUM STEPSIZE WHICH MEETS STABILITY CRITERION OF THE ADVECTION TERM
 (FOR PURE FINITE-DIFFERENCE OPTION, MIXELM=0) 
 = 0.1340    (WHEN MIN. R.F.=1)  AT K=   3, I=   2, J=  31


 TOTAL NUMBER OF POINT SOURCES/SINKS PRESENT IN THE FLOW MODEL =   240

 MAXIMUM STEPSIZE WHICH MEETS STABILITY CRITERION OF THE SINK & SOURCE TERM
 = 0.1000E+31(WHEN MIN. R.F.=1)  AT K=   0, I=   0, J=   0

 MAXIMUM STEPSIZE WHICH MEETS STABILITY CRITERION OF THE DISPERSION TERM
 = 0.7230E-02(WHEN MIN. R.F.=1)  AT K=   3, I=   2, J=  30
     1 CALLS TO GCG PACKAGE FOR TRANSPORT TIME STEP   7 IN FLOW TIME STEP   2 STRESS PERIOD   2
    24 TOTAL ITERATIONS
0WARNING: NUMERICAL OSCILLATION ENCOUNTERED
 ONE OR MORE CELL CONCENTRATIONS LESS THAN CRHOREF
 SMALLEST DENSITY =  0.100E+04
 AT CELL (I,J,K) = (   1,  66,  17)

 
 SOLVING FOR HEAD 
 FLOW MODEL IS TRANSIENT
 FLOW MODEL CONTAINS CONSTANT-HEAD CELLS


 MAXIMUM STEPSIZE DURING WHICH ANY PARTICLE CANNOT MOVE MORE THAN ONE CELL
 = 0.1692    (WHEN MIN. R.F.=1)  AT K=   3, I=   2, J=  30

 MAXIMUM STEPSIZE WHICH MEETS STABILITY CRITERION OF THE ADVECTION TERM
 (FOR PURE FINITE-DIFFERENCE OPTION, MIXELM=0) 
 = 0.1341    (WHEN MIN. R.F.=1)  AT K=   3, I=   2, J=  31


 TOTAL NUMBER OF POINT SOURCES/SINKS PRESENT IN THE FLOW MODEL =   240

 MAXIMUM STEPSIZE WHICH MEETS STABILITY CRITERION OF THE SINK & SOURCE TERM
 = 0.1000E+31(WHEN MIN. R.F.=1)  AT K=   0, I=   0, J=   0

 MAXIMUM STEPSIZE WHICH MEETS STABILITY CRITERION OF THE DISPERSION TERM
 = 0.7236E-02(WHEN MIN. R.F.=1)  AT K=   3, I=   2, J=  30
     1 CALLS TO GCG PACKAGE FOR TRANSPORT TIME STEP   8 IN FLOW TIME STEP   2 STRESS PERIOD   2
    23 TOTAL ITERATIONS
  MAXIMUM CONCENTRATION CHANGES FOR EACH ITERATION:
  MAX. CHANGE LAYER,ROW,COL MAX. CHANGE LAYER,ROW,COL MAX. CHANGE LAYER,ROW,COL MAX. CHANGE LAYER,ROW,COL MAX. CHANGE LAYER,ROW,COL
 ------------------------------------------------------------------------------------------------------------------------------------
   0.2307E-01 (  5,  1, 57)  0.9622E-02 (  6,  1, 39)  0.4510E-02 (  7,  1, 39)  0.2302E-02 (  5,  2, 41)  0.1328E-02 (  5,  1, 41)
   0.7863E-03 (  3,  1, 31)  0.4224E-03 (  3,  2, 32)  0.2722E-03 (  2,  2, 32)  0.1776E-03 (  3,  3, 32)  0.9142E-04 (  3,  3, 33)
   0.6493E-04 (  4,  3, 33)  0.3479E-04 (  3,  3, 33)  0.1871E-04 (  4,  3, 31)  0.1148E-04 (  3,  3, 31)  0.5993E-05 (  3,  1, 33)
   0.3704E-05 (  4,  1, 33)  0.2328E-05 (  4,  1, 34)  0.1336E-05 (  4,  1, 35)  0.7790E-06 (  3,  1, 35)  0.3531E-06 (  4,  1, 36)
   0.1828E-06 (  4,  1, 41)  0.1493E-06 (  2,  1, 35)  0.9688E-07 (  3,  1, 35)
0WARNING: NUMERICAL OSCILLATION ENCOUNTERED
 ONE OR MORE CELL CONCENTRATIONS LESS THAN CRHOREF
 SMALLEST DENSITY =  0.100E+04
 AT CELL (I,J,K) = (   1,  66,  17)



                                          ================================================
                                                         FROM TIME =   3.0000     TO    4.0000    

 
 SOLVING FOR HEAD 
 FLOW MODEL IS TRANSIENT
 FLOW MODEL CONTAINS CONSTANT-HEAD CELLS


 MAXIMUM STEPSIZE DURING WHICH ANY PARTICLE CANNOT MOVE MORE THAN ONE CELL
 = 0.1693    (WHEN MIN. R.F.=1)  AT K=   3, I=   2, J=  30

 MAXIMUM STEPSIZE WHICH MEETS STABILITY CRITERION OF THE ADVECTION TERM
 (FOR PURE FINITE-DIFFERENCE OPTION, MIXELM=0) 
 = 0.1342    (WHEN MIN. R.F.=1)  AT K=   3, I=   2, J=  31


 TOTAL NUMBER OF POINT SOURCES/SINKS PRESENT IN THE FLOW MODEL =   240

 MAXIMUM STEPSIZE WHICH MEETS STABILITY CRITERION OF THE SINK & SOURCE TERM
 = 0.1000E+31(WHEN MIN. R.F.=1)  AT K=   0, I=   0, J=   0

 MAXIMUM STEPSIZE WHICH MEETS STABILITY CRITERION OF THE DISPERSION TERM
 = 0.7241E-02(WHEN MIN. R.F.=1)  AT K=   3, I=   2, J=  30


     1 CALLS TO GCG PACKAGE FOR TRANSPORT TIME STEP   1 IN FLOW TIME STEP   3 STRESS PERIOD   2
    24 TOTAL ITERATIONS

 NO OUTPUT CONTROL FOR STRESS PERIOD    2   TIME STEP   3
0WARNING: NUMERICAL OSCILLATION ENCOUNTERED
 ONE OR MORE CELL CONCENTRATIONS LESS THAN CRHOREF
 SMALLEST DENSITY =  0.100E+04
 AT CELL (I,J,K) = (   1,  66,  17)

 
 SOLVING FOR HEAD 
 FLOW MODEL IS TRANSIENT
 FLOW MODEL CONTAINS CONSTANT-HEAD CELLS


 MAXIMUM STEPSIZE DURING WHICH ANY PARTICLE CANNOT MOVE MORE THAN ONE CELL
 = 0.1694    (WHEN MIN. R.F.=1)  AT K=   3, I=   2, J=  30

 MAXIMUM STEPSIZE WHICH MEETS STABILITY CRITERION OF THE ADVECTION TERM
 (FOR PURE FINITE-DIFFERENCE OPTION, MIXELM=0) 
 = 0.1342    (WHEN MIN. R.F.=1)  AT K=   3, I=   2, J=  31


 TOTAL NUMBER OF POINT SOURCES/SINKS PRESENT IN THE FLOW MODEL =   240

 MAXIMUM STEPSIZE WHICH MEETS STABILITY CRITERION OF THE SINK & SOURCE TERM
 = 0.1000E+31(WHEN MIN. R.F.=1)  AT K=   0, I=   0, J=   0

 MAXIMUM STEPSIZE WHICH MEETS STABILITY CRITERION OF THE DISPERSION TERM
 = 0.7246E-02(WHEN MIN. R.F.=1)  AT K=   3, I=   2, J=  30
     1 CALLS TO GCG PACKAGE FOR TRANSPORT TIME STEP   2 IN FLOW TIME STEP   3 STRESS PERIOD   2
    24 TOTAL ITERATIONS
0WARNING: NUMERICAL OSCILLATION ENCOUNTERED
 ONE OR MORE CELL CONCENTRATIONS LESS THAN CRHOREF
 SMALLEST DENSITY =  0.100E+04
 AT CELL (I,J,K) = (   1,  66,  17)

 
 SOLVING FOR HEAD 
 FLOW MODEL IS TRANSIENT
 FLOW MODEL CONTAINS CONSTANT-HEAD CELLS


 MAXIMUM STEPSIZE DURING WHICH ANY PARTICLE CANNOT MOVE MORE THAN ONE CELL
 = 0.1694    (WHEN MIN. R.F.=1)  AT K=   3, I=   2, J=  30

 MAXIMUM STEPSIZE WHICH MEETS STABILITY CRITERION OF THE ADVECTION TERM
 (FOR PURE FINITE-DIFFERENCE OPTION, MIXELM=0) 
 = 0.1343    (WHEN MIN. R.F.=1)  AT K=   3, I=   2, J=  31


 TOTAL NUMBER OF POINT SOURCES/SINKS PRESENT IN THE FLOW MODEL =   240

 MAXIMUM STEPSIZE WHICH MEETS STABILITY CRITERION OF THE SINK & SOURCE TERM
 = 0.1000E+31(WHEN MIN. R.F.=1)  AT K=   0, I=   0, J=   0

 MAXIMUM STEPSIZE WHICH MEETS STABILITY CRITERION OF THE DISPERSION TERM
 = 0.7251E-02(WHEN MIN. R.F.=1)  AT K=   3, I=   2, J=  30
     1 CALLS TO GCG PACKAGE FOR TRANSPORT TIME STEP   3 IN FLOW TIME STEP   3 STRESS PERIOD   2
    24 TOTAL ITERATIONS
0WARNING: NUMERICAL OSCILLATION ENCOUNTERED
 ONE OR MORE CELL CONCENTRATIONS LESS THAN CRHOREF
 SMALLEST DENSITY =  0.100E+04
 AT CELL (I,J,K) = (   1,  66,  17)

 
 SOLVING FOR HEAD 
 FLOW MODEL IS TRANSIENT
 FLOW MODEL CONTAINS CONSTANT-HEAD CELLS


 MAXIMUM STEPSIZE DURING WHICH ANY PARTICLE CANNOT MOVE MORE THAN ONE CELL
 = 0.1695    (WHEN MIN. R.F.=1)  AT K=   3, I=   2, J=  30

 MAXIMUM STEPSIZE WHICH MEETS STABILITY CRITERION OF THE ADVECTION TERM
 (FOR PURE FINITE-DIFFERENCE OPTION, MIXELM=0) 
 = 0.1343    (WHEN MIN. R.F.=1)  AT K=   3, I=   2, J=  31


 TOTAL NUMBER OF POINT SOURCES/SINKS PRESENT IN THE FLOW MODEL =   240

 MAXIMUM STEPSIZE WHICH MEETS STABILITY CRITERION OF THE SINK & SOURCE TERM
 = 0.1000E+31(WHEN MIN. R.F.=1)  AT K=   0, I=   0, J=   0

 MAXIMUM STEPSIZE WHICH MEETS STABILITY CRITERION OF THE DISPERSION TERM
 = 0.7255E-02(WHEN MIN. R.F.=1)  AT K=   3, I=   2, J=  30
     1 CALLS TO GCG PACKAGE FOR TRANSPORT TIME STEP   4 IN FLOW TIME STEP   3 STRESS PERIOD   2
    24 TOTAL ITERATIONS
0WARNING: NUMERICAL OSCILLATION ENCOUNTERED
 ONE OR MORE CELL CONCENTRATIONS LESS THAN CRHOREF
 SMALLEST DENSITY =  0.100E+04
 AT CELL (I,J,K) = (   1,  66,  17)

 
 SOLVING FOR HEAD 
 FLOW MODEL IS TRANSIENT
 FLOW MODEL CONTAINS CONSTANT-HEAD CELLS


 MAXIMUM STEPSIZE DURING WHICH ANY PARTICLE CANNOT MOVE MORE THAN ONE CELL
 = 0.1696    (WHEN MIN. R.F.=1)  AT K=   3, I=   2, J=  30

 MAXIMUM STEPSIZE WHICH MEETS STABILITY CRITERION OF THE ADVECTION TERM
 (FOR PURE FINITE-DIFFERENCE OPTION, MIXELM=0) 
 = 0.1344    (WHEN MIN. R.F.=1)  AT K=   3, I=   2, J=  31


 TOTAL NUMBER OF POINT SOURCES/SINKS PRESENT IN THE FLOW MODEL =   240

 MAXIMUM STEPSIZE WHICH MEETS STABILITY CRITERION OF THE SINK & SOURCE TERM
 = 0.1000E+31(WHEN MIN. R.F.=1)  AT K=   0, I=   0, J=   0

 MAXIMUM STEPSIZE WHICH MEETS STABILITY CRITERION OF THE DISPERSION TERM
 = 0.7258E-02(WHEN MIN. R.F.=1)  AT K=   3, I=   2, J=  30
     1 CALLS TO GCG PACKAGE FOR TRANSPORT TIME STEP   5 IN FLOW TIME STEP   3 STRESS PERIOD   2
    24 TOTAL ITERATIONS
0WARNING: NUMERICAL OSCILLATION ENCOUNTERED
 ONE OR MORE CELL CONCENTRATIONS LESS THAN CRHOREF
 SMALLEST DENSITY =  0.100E+04
 AT CELL (I,J,K) = (   1,  67,  17)

 
 SOLVING FOR HEAD 
 FLOW MODEL IS TRANSIENT
 FLOW MODEL CONTAINS CONSTANT-HEAD CELLS


 MAXIMUM STEPSIZE DURING WHICH ANY PARTICLE CANNOT MOVE MORE THAN ONE CELL
 = 0.1696    (WHEN MIN. R.F.=1)  AT K=   3, I=   2, J=  30

 MAXIMUM STEPSIZE WHICH MEETS STABILITY CRITERION OF THE ADVECTION TERM
 (FOR PURE FINITE-DIFFERENCE OPTION, MIXELM=0) 
 = 0.1344    (WHEN MIN. R.F.=1)  AT K=   3, I=   2, J=  31


 TOTAL NUMBER OF POINT SOURCES/SINKS PRESENT IN THE FLOW MODEL =   240

 MAXIMUM STEPSIZE WHICH MEETS STABILITY CRITERION OF THE SINK & SOURCE TERM
 = 0.1000E+31(WHEN MIN. R.F.=1)  AT K=   0, I=   0, J=   0

 MAXIMUM STEPSIZE WHICH MEETS STABILITY CRITERION OF THE DISPERSION TERM
 = 0.7261E-02(WHEN MIN. R.F.=1)  AT K=   3, I=   2, J=  30
     1 CALLS TO GCG PACKAGE FOR TRANSPORT TIME STEP   6 IN FLOW TIME STEP   3 STRESS PERIOD   2
    24 TOTAL ITERATIONS
0WARNING: NUMERICAL OSCILLATION ENCOUNTERED
 ONE OR MORE CELL CONCENTRATIONS LESS THAN CRHOREF
 SMALLEST DENSITY =  0.100E+04
 AT CELL (I,J,K) = (   1,  67,  17)

 
 SOLVING FOR HEAD 
 FLOW MODEL IS TRANSIENT
 FLOW MODEL CONTAINS CONSTANT-HEAD CELLS


 MAXIMUM STEPSIZE DURING WHICH ANY PARTICLE CANNOT MOVE MORE THAN ONE CELL
 = 0.1697    (WHEN MIN. R.F.=1)  AT K=   3, I=   2, J=  30

 MAXIMUM STEPSIZE WHICH MEETS STABILITY CRITERION OF THE ADVECTION TERM
 (FOR PURE FINITE-DIFFERENCE OPTION, MIXELM=0) 
 = 0.1345    (WHEN MIN. R.F.=1)  AT K=   3, I=   2, J=  31


 TOTAL NUMBER OF POINT SOURCES/SINKS PRESENT IN THE FLOW MODEL =   240

 MAXIMUM STEPSIZE WHICH MEETS STABILITY CRITERION OF THE SINK & SOURCE TERM
 = 0.1000E+31(WHEN MIN. R.F.=1)  AT K=   0, I=   0, J=   0

 MAXIMUM STEPSIZE WHICH MEETS STABILITY CRITERION OF THE DISPERSION TERM
 = 0.7264E-02(WHEN MIN. R.F.=1)  AT K=   3, I=   2, J=  30
     1 CALLS TO GCG PACKAGE FOR TRANSPORT TIME STEP   7 IN FLOW TIME STEP   3 STRESS PERIOD   2
    24 TOTAL ITERATIONS
0WARNING: NUMERICAL OSCILLATION ENCOUNTERED
 ONE OR MORE CELL CONCENTRATIONS LESS THAN CRHOREF
 SMALLEST DENSITY =  0.100E+04
 AT CELL (I,J,K) = (   1,  67,  17)

 
 SOLVING FOR HEAD 
 FLOW MODEL IS TRANSIENT
 FLOW MODEL CONTAINS CONSTANT-HEAD CELLS


 MAXIMUM STEPSIZE DURING WHICH ANY PARTICLE CANNOT MOVE MORE THAN ONE CELL
 = 0.1697    (WHEN MIN. R.F.=1)  AT K=   3, I=   2, J=  30

 MAXIMUM STEPSIZE WHICH MEETS STABILITY CRITERION OF THE ADVECTION TERM
 (FOR PURE FINITE-DIFFERENCE OPTION, MIXELM=0) 
 = 0.1345    (WHEN MIN. R.F.=1)  AT K=   3, I=   2, J=  31


 TOTAL NUMBER OF POINT SOURCES/SINKS PRESENT IN THE FLOW MODEL =   240

 MAXIMUM STEPSIZE WHICH MEETS STABILITY CRITERION OF THE SINK & SOURCE TERM
 = 0.1000E+31(WHEN MIN. R.F.=1)  AT K=   0, I=   0, J=   0

 MAXIMUM STEPSIZE WHICH MEETS STABILITY CRITERION OF THE DISPERSION TERM
 = 0.7267E-02(WHEN MIN. R.F.=1)  AT K=   3, I=   2, J=  30
     1 CALLS TO GCG PACKAGE FOR TRANSPORT TIME STEP   8 IN FLOW TIME STEP   3 STRESS PERIOD   2
    21 TOTAL ITERATIONS
  MAXIMUM CONCENTRATION CHANGES FOR EACH ITERATION:
  MAX. CHANGE LAYER,ROW,COL MAX. CHANGE LAYER,ROW,COL MAX. CHANGE LAYER,ROW,COL MAX. CHANGE LAYER,ROW,COL MAX. CHANGE LAYER,ROW,COL
 ------------------------------------------------------------------------------------------------------------------------------------
   0.1516E-01 (  5,  1, 58)  0.6591E-02 (  6,  1, 39)  0.3420E-02 (  7,  1, 39)  0.1451E-02 (  7,  1, 39)  0.8475E-03 (  5,  1, 41)
   0.4882E-03 (  3,  1, 31)  0.2614E-03 (  2,  2, 31)  0.1651E-03 (  4,  2, 32)  0.1097E-03 (  3,  2, 32)  0.5370E-04 (  3,  3, 33)
   0.3767E-04 (  4,  3, 33)  0.1957E-04 (  3,  3, 33)  0.1077E-04 (  4,  3, 31)  0.6442E-05 (  3,  3, 31)  0.3380E-05 (  3,  1, 33)
   0.1978E-05 (  4,  1, 33)  0.1252E-05 (  4,  1, 34)  0.7080E-06 (  4,  1, 35)  0.3924E-06 (  3,  1, 35)  0.1684E-06 (  4,  1, 36)
   0.8542E-07 (  4,  3, 34)
0WARNING: NUMERICAL OSCILLATION ENCOUNTERED
 ONE OR MORE CELL CONCENTRATIONS LESS THAN CRHOREF
 SMALLEST DENSITY =  0.100E+04
 AT CELL (I,J,K) = (   1,  67,  17)



                                          ================================================
                                                         FROM TIME =   4.0000     TO    5.0000    

 
 SOLVING FOR HEAD 
 FLOW MODEL IS TRANSIENT
 FLOW MODEL CONTAINS CONSTANT-HEAD CELLS


 MAXIMUM STEPSIZE DURING WHICH ANY PARTICLE CANNOT MOVE MORE THAN ONE CELL
 = 0.1698    (WHEN MIN. R.F.=1)  AT K=   3, I=   2, J=  30

 MAXIMUM STEPSIZE WHICH MEETS STABILITY CRITERION OF THE ADVECTION TERM
 (FOR PURE FINITE-DIFFERENCE OPTION, MIXELM=0) 
 = 0.1345    (WHEN MIN. R.F.=1)  AT K=   3, I=   2, J=  31


 TOTAL NUMBER OF POINT SOURCES/SINKS PRESENT IN THE FLOW MODEL =   240

 MAXIMUM STEPSIZE WHICH MEETS STABILITY CRITERION OF THE SINK & SOURCE TERM
 = 0.1000E+31(WHEN MIN. R.F.=1)  AT K=   0, I=   0, J=   0

 MAXIMUM STEPSIZE WHICH MEETS STABILITY CRITERION OF THE DISPERSION TERM
 = 0.7269E-02(WHEN MIN. R.F.=1)  AT K=   3, I=   2, J=  30


     1 CALLS TO GCG PACKAGE FOR TRANSPORT TIME STEP   1 IN FLOW TIME STEP   4 STRESS PERIOD   2
    24 TOTAL ITERATIONS

 NO OUTPUT CONTROL FOR STRESS PERIOD    2   TIME STEP   4
0WARNING: NUMERICAL OSCILLATION ENCOUNTERED
 ONE OR MORE CELL CONCENTRATIONS LESS THAN CRHOREF
 SMALLEST DENSITY =  0.100E+04
 AT CELL (I,J,K) = (   1,  67,  17)

 
 SOLVING FOR HEAD 
 FLOW MODEL IS TRANSIENT
 FLOW MODEL CONTAINS CONSTANT-HEAD CELLS


 MAXIMUM STEPSIZE DURING WHICH ANY PARTICLE CANNOT MOVE MORE THAN ONE CELL
 = 0.1698    (WHEN MIN. R.F.=1)  AT K=   3, I=   2, J=  30

 MAXIMUM STEPSIZE WHICH MEETS STABILITY CRITERION OF THE ADVECTION TERM
 (FOR PURE FINITE-DIFFERENCE OPTION, MIXELM=0) 
 = 0.1346    (WHEN MIN. R.F.=1)  AT K=   3, I=   2, J=  31


 TOTAL NUMBER OF POINT SOURCES/SINKS PRESENT IN THE FLOW MODEL =   240

 MAXIMUM STEPSIZE WHICH MEETS STABILITY CRITERION OF THE SINK & SOURCE TERM
 = 0.1000E+31(WHEN MIN. R.F.=1)  AT K=   0, I=   0, J=   0

 MAXIMUM STEPSIZE WHICH MEETS STABILITY CRITERION OF THE DISPERSION TERM
 = 0.7271E-02(WHEN MIN. R.F.=1)  AT K=   3, I=   2, J=  30
     1 CALLS TO GCG PACKAGE FOR TRANSPORT TIME STEP   2 IN FLOW TIME STEP   4 STRESS PERIOD   2
    24 TOTAL ITERATIONS
0WARNING: NUMERICAL OSCILLATION ENCOUNTERED
 ONE OR MORE CELL CONCENTRATIONS LESS THAN CRHOREF
 SMALLEST DENSITY =  0.100E+04
 AT CELL (I,J,K) = (   1,  67,  17)

 
 SOLVING FOR HEAD 
 FLOW MODEL IS TRANSIENT
 FLOW MODEL CONTAINS CONSTANT-HEAD CELLS


 MAXIMUM STEPSIZE DURING WHICH ANY PARTICLE CANNOT MOVE MORE THAN ONE CELL
 = 0.1698    (WHEN MIN. R.F.=1)  AT K=   3, I=   2, J=  30

 MAXIMUM STEPSIZE WHICH MEETS STABILITY CRITERION OF THE ADVECTION TERM
 (FOR PURE FINITE-DIFFERENCE OPTION, MIXELM=0) 
 = 0.1346    (WHEN MIN. R.F.=1)  AT K=   3, I=   2, J=  31


 TOTAL NUMBER OF POINT SOURCES/SINKS PRESENT IN THE FLOW MODEL =   240

 MAXIMUM STEPSIZE WHICH MEETS STABILITY CRITERION OF THE SINK & SOURCE TERM
 = 0.1000E+31(WHEN MIN. R.F.=1)  AT K=   0, I=   0, J=   0

 MAXIMUM STEPSIZE WHICH MEETS STABILITY CRITERION OF THE DISPERSION TERM
 = 0.7273E-02(WHEN MIN. R.F.=1)  AT K=   3, I=   2, J=  30
     1 CALLS TO GCG PACKAGE FOR TRANSPORT TIME STEP   3 IN FLOW TIME STEP   4 STRESS PERIOD   2
    23 TOTAL ITERATIONS
0WARNING: NUMERICAL OSCILLATION ENCOUNTERED
 ONE OR MORE CELL CONCENTRATIONS LESS THAN CRHOREF
 SMALLEST DENSITY =  0.100E+04
 AT CELL (I,J,K) = (   1,  67,  17)

 
 SOLVING FOR HEAD 
 FLOW MODEL IS TRANSIENT
 FLOW MODEL CONTAINS CONSTANT-HEAD CELLS


 MAXIMUM STEPSIZE DURING WHICH ANY PARTICLE CANNOT MOVE MORE THAN ONE CELL
 = 0.1699    (WHEN MIN. R.F.=1)  AT K=   3, I=   2, J=  30

 MAXIMUM STEPSIZE WHICH MEETS STABILITY CRITERION OF THE ADVECTION TERM
 (FOR PURE FINITE-DIFFERENCE OPTION, MIXELM=0) 
 = 0.1346    (WHEN MIN. R.F.=1)  AT K=   3, I=   2, J=  31


 TOTAL NUMBER OF POINT SOURCES/SINKS PRESENT IN THE FLOW MODEL =   240

 MAXIMUM STEPSIZE WHICH MEETS STABILITY CRITERION OF THE SINK & SOURCE TERM
 = 0.1000E+31(WHEN MIN. R.F.=1)  AT K=   0, I=   0, J=   0

 MAXIMUM STEPSIZE WHICH MEETS STABILITY CRITERION OF THE DISPERSION TERM
 = 0.7275E-02(WHEN MIN. R.F.=1)  AT K=   3, I=   2, J=  30
     1 CALLS TO GCG PACKAGE FOR TRANSPORT TIME STEP   4 IN FLOW TIME STEP   4 STRESS PERIOD   2
    23 TOTAL ITERATIONS
0WARNING: NUMERICAL OSCILLATION ENCOUNTERED
 ONE OR MORE CELL CONCENTRATIONS LESS THAN CRHOREF
 SMALLEST DENSITY =  0.100E+04
 AT CELL (I,J,K) = (   1,  67,  17)

 
 SOLVING FOR HEAD 
 FLOW MODEL IS TRANSIENT
 FLOW MODEL CONTAINS CONSTANT-HEAD CELLS


 MAXIMUM STEPSIZE DURING WHICH ANY PARTICLE CANNOT MOVE MORE THAN ONE CELL
 = 0.1699    (WHEN MIN. R.F.=1)  AT K=   3, I=   2, J=  30

 MAXIMUM STEPSIZE WHICH MEETS STABILITY CRITERION OF THE ADVECTION TERM
 (FOR PURE FINITE-DIFFERENCE OPTION, MIXELM=0) 
 = 0.1346    (WHEN MIN. R.F.=1)  AT K=   3, I=   2, J=  31


 TOTAL NUMBER OF POINT SOURCES/SINKS PRESENT IN THE FLOW MODEL =   240

 MAXIMUM STEPSIZE WHICH MEETS STABILITY CRITERION OF THE SINK & SOURCE TERM
 = 0.1000E+31(WHEN MIN. R.F.=1)  AT K=   0, I=   0, J=   0

 MAXIMUM STEPSIZE WHICH MEETS STABILITY CRITERION OF THE DISPERSION TERM
 = 0.7276E-02(WHEN MIN. R.F.=1)  AT K=   3, I=   2, J=  30
     1 CALLS TO GCG PACKAGE FOR TRANSPORT TIME STEP   5 IN FLOW TIME STEP   4 STRESS PERIOD   2
    23 TOTAL ITERATIONS
0WARNING: NUMERICAL OSCILLATION ENCOUNTERED
 ONE OR MORE CELL CONCENTRATIONS LESS THAN CRHOREF
 SMALLEST DENSITY =  0.100E+04
 AT CELL (I,J,K) = (   1,  67,  17)

 
 SOLVING FOR HEAD 
 FLOW MODEL IS TRANSIENT
 FLOW MODEL CONTAINS CONSTANT-HEAD CELLS


 MAXIMUM STEPSIZE DURING WHICH ANY PARTICLE CANNOT MOVE MORE THAN ONE CELL
 = 0.1699    (WHEN MIN. R.F.=1)  AT K=   3, I=   2, J=  30

 MAXIMUM STEPSIZE WHICH MEETS STABILITY CRITERION OF THE ADVECTION TERM
 (FOR PURE FINITE-DIFFERENCE OPTION, MIXELM=0) 
 = 0.1347    (WHEN MIN. R.F.=1)  AT K=   3, I=   2, J=  31


 TOTAL NUMBER OF POINT SOURCES/SINKS PRESENT IN THE FLOW MODEL =   240

 MAXIMUM STEPSIZE WHICH MEETS STABILITY CRITERION OF THE SINK & SOURCE TERM
 = 0.1000E+31(WHEN MIN. R.F.=1)  AT K=   0, I=   0, J=   0

 MAXIMUM STEPSIZE WHICH MEETS STABILITY CRITERION OF THE DISPERSION TERM
 = 0.7278E-02(WHEN MIN. R.F.=1)  AT K=   3, I=   2, J=  30
     1 CALLS TO GCG PACKAGE FOR TRANSPORT TIME STEP   6 IN FLOW TIME STEP   4 STRESS PERIOD   2
    22 TOTAL ITERATIONS
0WARNING: NUMERICAL OSCILLATION ENCOUNTERED
 ONE OR MORE CELL CONCENTRATIONS LESS THAN CRHOREF
 SMALLEST DENSITY =  0.100E+04
 AT CELL (I,J,K) = (   1,  67,  17)

 
 SOLVING FOR HEAD 
 FLOW MODEL IS TRANSIENT
 FLOW MODEL CONTAINS CONSTANT-HEAD CELLS


 MAXIMUM STEPSIZE DURING WHICH ANY PARTICLE CANNOT MOVE MORE THAN ONE CELL
 = 0.1699    (WHEN MIN. R.F.=1)  AT K=   3, I=   2, J=  30

 MAXIMUM STEPSIZE WHICH MEETS STABILITY CRITERION OF THE ADVECTION TERM
 (FOR PURE FINITE-DIFFERENCE OPTION, MIXELM=0) 
 = 0.1347    (WHEN MIN. R.F.=1)  AT K=   3, I=   2, J=  31


 TOTAL NUMBER OF POINT SOURCES/SINKS PRESENT IN THE FLOW MODEL =   240

 MAXIMUM STEPSIZE WHICH MEETS STABILITY CRITERION OF THE SINK & SOURCE TERM
 = 0.1000E+31(WHEN MIN. R.F.=1)  AT K=   0, I=   0, J=   0

 MAXIMUM STEPSIZE WHICH MEETS STABILITY CRITERION OF THE DISPERSION TERM
 = 0.7279E-02(WHEN MIN. R.F.=1)  AT K=   3, I=   2, J=  30
     1 CALLS TO GCG PACKAGE FOR TRANSPORT TIME STEP   7 IN FLOW TIME STEP   4 STRESS PERIOD   2
    22 TOTAL ITERATIONS
0WARNING: NUMERICAL OSCILLATION ENCOUNTERED
 ONE OR MORE CELL CONCENTRATIONS LESS THAN CRHOREF
 SMALLEST DENSITY =  0.100E+04
 AT CELL (I,J,K) = (   1,  67,  17)

 
 SOLVING FOR HEAD 
 FLOW MODEL IS TRANSIENT
 FLOW MODEL CONTAINS CONSTANT-HEAD CELLS


 MAXIMUM STEPSIZE DURING WHICH ANY PARTICLE CANNOT MOVE MORE THAN ONE CELL
 = 0.1700    (WHEN MIN. R.F.=1)  AT K=   3, I=   2, J=  30

 MAXIMUM STEPSIZE WHICH MEETS STABILITY CRITERION OF THE ADVECTION TERM
 (FOR PURE FINITE-DIFFERENCE OPTION, MIXELM=0) 
 = 0.1347    (WHEN MIN. R.F.=1)  AT K=   3, I=   2, J=  31


 TOTAL NUMBER OF POINT SOURCES/SINKS PRESENT IN THE FLOW MODEL =   240

 MAXIMUM STEPSIZE WHICH MEETS STABILITY CRITERION OF THE SINK & SOURCE TERM
 = 0.1000E+31(WHEN MIN. R.F.=1)  AT K=   0, I=   0, J=   0

 MAXIMUM STEPSIZE WHICH MEETS STABILITY CRITERION OF THE DISPERSION TERM
 = 0.7280E-02(WHEN MIN. R.F.=1)  AT K=   3, I=   2, J=  30
     1 CALLS TO GCG PACKAGE FOR TRANSPORT TIME STEP   8 IN FLOW TIME STEP   4 STRESS PERIOD   2
    20 TOTAL ITERATIONS
  MAXIMUM CONCENTRATION CHANGES FOR EACH ITERATION:
  MAX. CHANGE LAYER,ROW,COL MAX. CHANGE LAYER,ROW,COL MAX. CHANGE LAYER,ROW,COL MAX. CHANGE LAYER,ROW,COL MAX. CHANGE LAYER,ROW,COL
 ------------------------------------------------------------------------------------------------------------------------------------
   0.1138E-01 (  6,  1, 57)  0.4541E-02 (  6,  1, 40)  0.2413E-02 (  7,  1, 39)  0.1112E-02 (  7,  1, 39)  0.5486E-03 (  4,  2, 41)
   0.3380E-03 (  3,  1, 31)  0.1881E-03 (  4,  2, 31)  0.1163E-03 (  4,  2, 32)  0.7805E-04 (  3,  2, 32)  0.3763E-04 (  4,  3, 32)
   0.2582E-04 (  4,  3, 33)  0.1348E-04 (  3,  3, 33)  0.7433E-05 (  4,  3, 31)  0.4411E-05 (  3,  3, 31)  0.2203E-05 (  3,  1, 33)
   0.1302E-05 (  7,  1, 42)  0.8137E-06 (  4,  1, 34)  0.4574E-06 (  4,  1, 35)  0.2443E-06 (  3,  1, 35)  0.9999E-07 (  4,  1, 36)
0WARNING: NUMERICAL OSCILLATION ENCOUNTERED
 ONE OR MORE CELL CONCENTRATIONS LESS THAN CRHOREF
 SMALLEST DENSITY =  0.100E+04
 AT CELL (I,J,K) = (   1,  67,  17)



                                          ================================================
                                                         FROM TIME =   5.0000     TO    6.0000    

 
 SOLVING FOR HEAD 
 FLOW MODEL IS TRANSIENT
 FLOW MODEL CONTAINS CONSTANT-HEAD CELLS


 MAXIMUM STEPSIZE DURING WHICH ANY PARTICLE CANNOT MOVE MORE THAN ONE CELL
 = 0.1700    (WHEN MIN. R.F.=1)  AT K=   3, I=   2, J=  30

 MAXIMUM STEPSIZE WHICH MEETS STABILITY CRITERION OF THE ADVECTION TERM
 (FOR PURE FINITE-DIFFERENCE OPTION, MIXELM=0) 
 = 0.1347    (WHEN MIN. R.F.=1)  AT K=   3, I=   2, J=  31


 TOTAL NUMBER OF POINT SOURCES/SINKS PRESENT IN THE FLOW MODEL =   240

 MAXIMUM STEPSIZE WHICH MEETS STABILITY CRITERION OF THE SINK & SOURCE TERM
 = 0.1000E+31(WHEN MIN. R.F.=1)  AT K=   0, I=   0, J=   0

 MAXIMUM STEPSIZE WHICH MEETS STABILITY CRITERION OF THE DISPERSION TERM
 = 0.7281E-02(WHEN MIN. R.F.=1)  AT K=   3, I=   2, J=  30


     1 CALLS TO GCG PACKAGE FOR TRANSPORT TIME STEP   1 IN FLOW TIME STEP   5 STRESS PERIOD   2
    22 TOTAL ITERATIONS

 NO OUTPUT CONTROL FOR STRESS PERIOD    2   TIME STEP   5
0WARNING: NUMERICAL OSCILLATION ENCOUNTERED
 ONE OR MORE CELL CONCENTRATIONS LESS THAN CRHOREF
 SMALLEST DENSITY =  0.100E+04
 AT CELL (I,J,K) = (   1,  67,  17)

 
 SOLVING FOR HEAD 
 FLOW MODEL IS TRANSIENT
 FLOW MODEL CONTAINS CONSTANT-HEAD CELLS


 MAXIMUM STEPSIZE DURING WHICH ANY PARTICLE CANNOT MOVE MORE THAN ONE CELL
 = 0.1700    (WHEN MIN. R.F.=1)  AT K=   3, I=   2, J=  30

 MAXIMUM STEPSIZE WHICH MEETS STABILITY CRITERION OF THE ADVECTION TERM
 (FOR PURE FINITE-DIFFERENCE OPTION, MIXELM=0) 
 = 0.1347    (WHEN MIN. R.F.=1)  AT K=   3, I=   2, J=  31


 TOTAL NUMBER OF POINT SOURCES/SINKS PRESENT IN THE FLOW MODEL =   240

 MAXIMUM STEPSIZE WHICH MEETS STABILITY CRITERION OF THE SINK & SOURCE TERM
 = 0.1000E+31(WHEN MIN. R.F.=1)  AT K=   0, I=   0, J=   0

 MAXIMUM STEPSIZE WHICH MEETS STABILITY CRITERION OF THE DISPERSION TERM
 = 0.7282E-02(WHEN MIN. R.F.=1)  AT K=   3, I=   2, J=  30
     1 CALLS TO GCG PACKAGE FOR TRANSPORT TIME STEP   2 IN FLOW TIME STEP   5 STRESS PERIOD   2
    22 TOTAL ITERATIONS
0WARNING: NUMERICAL OSCILLATION ENCOUNTERED
 ONE OR MORE CELL CONCENTRATIONS LESS THAN CRHOREF
 SMALLEST DENSITY =  0.100E+04
 AT CELL (I,J,K) = (   1,  67,  17)

 
 SOLVING FOR HEAD 
 FLOW MODEL IS TRANSIENT
 FLOW MODEL CONTAINS CONSTANT-HEAD CELLS


 MAXIMUM STEPSIZE DURING WHICH ANY PARTICLE CANNOT MOVE MORE THAN ONE CELL
 = 0.1700    (WHEN MIN. R.F.=1)  AT K=   3, I=   2, J=  30

 MAXIMUM STEPSIZE WHICH MEETS STABILITY CRITERION OF THE ADVECTION TERM
 (FOR PURE FINITE-DIFFERENCE OPTION, MIXELM=0) 
 = 0.1347    (WHEN MIN. R.F.=1)  AT K=   3, I=   2, J=  31


 TOTAL NUMBER OF POINT SOURCES/SINKS PRESENT IN THE FLOW MODEL =   240

 MAXIMUM STEPSIZE WHICH MEETS STABILITY CRITERION OF THE SINK & SOURCE TERM
 = 0.1000E+31(WHEN MIN. R.F.=1)  AT K=   0, I=   0, J=   0

 MAXIMUM STEPSIZE WHICH MEETS STABILITY CRITERION OF THE DISPERSION TERM
 = 0.7283E-02(WHEN MIN. R.F.=1)  AT K=   3, I=   2, J=  30
     1 CALLS TO GCG PACKAGE FOR TRANSPORT TIME STEP   3 IN FLOW TIME STEP   5 STRESS PERIOD   2
    22 TOTAL ITERATIONS
0WARNING: NUMERICAL OSCILLATION ENCOUNTERED
 ONE OR MORE CELL CONCENTRATIONS LESS THAN CRHOREF
 SMALLEST DENSITY =  0.100E+04
 AT CELL (I,J,K) = (   1,  67,  17)

 
 SOLVING FOR HEAD 
 FLOW MODEL IS TRANSIENT
 FLOW MODEL CONTAINS CONSTANT-HEAD CELLS


 MAXIMUM STEPSIZE DURING WHICH ANY PARTICLE CANNOT MOVE MORE THAN ONE CELL
 = 0.1700    (WHEN MIN. R.F.=1)  AT K=   3, I=   2, J=  30

 MAXIMUM STEPSIZE WHICH MEETS STABILITY CRITERION OF THE ADVECTION TERM
 (FOR PURE FINITE-DIFFERENCE OPTION, MIXELM=0) 
 = 0.1348    (WHEN MIN. R.F.=1)  AT K=   3, I=   2, J=  31


 TOTAL NUMBER OF POINT SOURCES/SINKS PRESENT IN THE FLOW MODEL =   240

 MAXIMUM STEPSIZE WHICH MEETS STABILITY CRITERION OF THE SINK & SOURCE TERM
 = 0.1000E+31(WHEN MIN. R.F.=1)  AT K=   0, I=   0, J=   0

 MAXIMUM STEPSIZE WHICH MEETS STABILITY CRITERION OF THE DISPERSION TERM
 = 0.7284E-02(WHEN MIN. R.F.=1)  AT K=   3, I=   2, J=  30
     1 CALLS TO GCG PACKAGE FOR TRANSPORT TIME STEP   4 IN FLOW TIME STEP   5 STRESS PERIOD   2
    22 TOTAL ITERATIONS
0WARNING: NUMERICAL OSCILLATION ENCOUNTERED
 ONE OR MORE CELL CONCENTRATIONS LESS THAN CRHOREF
 SMALLEST DENSITY =  0.100E+04
 AT CELL (I,J,K) = (   1,  67,  17)

 
 SOLVING FOR HEAD 
 FLOW MODEL IS TRANSIENT
 FLOW MODEL CONTAINS CONSTANT-HEAD CELLS


 MAXIMUM STEPSIZE DURING WHICH ANY PARTICLE CANNOT MOVE MORE THAN ONE CELL
 = 0.1700    (WHEN MIN. R.F.=1)  AT K=   3, I=   2, J=  30

 MAXIMUM STEPSIZE WHICH MEETS STABILITY CRITERION OF THE ADVECTION TERM
 (FOR PURE FINITE-DIFFERENCE OPTION, MIXELM=0) 
 = 0.1348    (WHEN MIN. R.F.=1)  AT K=   3, I=   2, J=  31


 TOTAL NUMBER OF POINT SOURCES/SINKS PRESENT IN THE FLOW MODEL =   240

 MAXIMUM STEPSIZE WHICH MEETS STABILITY CRITERION OF THE SINK & SOURCE TERM
 = 0.1000E+31(WHEN MIN. R.F.=1)  AT K=   0, I=   0, J=   0

 MAXIMUM STEPSIZE WHICH MEETS STABILITY CRITERION OF THE DISPERSION TERM
 = 0.7285E-02(WHEN MIN. R.F.=1)  AT K=   3, I=   2, J=  30
     1 CALLS TO GCG PACKAGE FOR TRANSPORT TIME STEP   5 IN FLOW TIME STEP   5 STRESS PERIOD   2
    21 TOTAL ITERATIONS
0WARNING: NUMERICAL OSCILLATION ENCOUNTERED
 ONE OR MORE CELL CONCENTRATIONS LESS THAN CRHOREF
 SMALLEST DENSITY =  0.100E+04
 AT CELL (I,J,K) = (   1,  67,  17)

 
 SOLVING FOR HEAD 
 FLOW MODEL IS TRANSIENT
 FLOW MODEL CONTAINS CONSTANT-HEAD CELLS


 MAXIMUM STEPSIZE DURING WHICH ANY PARTICLE CANNOT MOVE MORE THAN ONE CELL
 = 0.1701    (WHEN MIN. R.F.=1)  AT K=   3, I=   2, J=  30

 MAXIMUM STEPSIZE WHICH MEETS STABILITY CRITERION OF THE ADVECTION TERM
 (FOR PURE FINITE-DIFFERENCE OPTION, MIXELM=0) 
 = 0.1348    (WHEN MIN. R.F.=1)  AT K=   3, I=   2, J=  31


 TOTAL NUMBER OF POINT SOURCES/SINKS PRESENT IN THE FLOW MODEL =   240

 MAXIMUM STEPSIZE WHICH MEETS STABILITY CRITERION OF THE SINK & SOURCE TERM
 = 0.1000E+31(WHEN MIN. R.F.=1)  AT K=   0, I=   0, J=   0

 MAXIMUM STEPSIZE WHICH MEETS STABILITY CRITERION OF THE DISPERSION TERM
 = 0.7286E-02(WHEN MIN. R.F.=1)  AT K=   3, I=   2, J=  30
     1 CALLS TO GCG PACKAGE FOR TRANSPORT TIME STEP   6 IN FLOW TIME STEP   5 STRESS PERIOD   2
    21 TOTAL ITERATIONS
0WARNING: NUMERICAL OSCILLATION ENCOUNTERED
 ONE OR MORE CELL CONCENTRATIONS LESS THAN CRHOREF
 SMALLEST DENSITY =  0.100E+04
 AT CELL (I,J,K) = (   1,  67,  17)

 
 SOLVING FOR HEAD 
 FLOW MODEL IS TRANSIENT
 FLOW MODEL CONTAINS CONSTANT-HEAD CELLS


 MAXIMUM STEPSIZE DURING WHICH ANY PARTICLE CANNOT MOVE MORE THAN ONE CELL
 = 0.1701    (WHEN MIN. R.F.=1)  AT K=   3, I=   2, J=  30

 MAXIMUM STEPSIZE WHICH MEETS STABILITY CRITERION OF THE ADVECTION TERM
 (FOR PURE FINITE-DIFFERENCE OPTION, MIXELM=0) 
 = 0.1348    (WHEN MIN. R.F.=1)  AT K=   3, I=   2, J=  31


 TOTAL NUMBER OF POINT SOURCES/SINKS PRESENT IN THE FLOW MODEL =   240

 MAXIMUM STEPSIZE WHICH MEETS STABILITY CRITERION OF THE SINK & SOURCE TERM
 = 0.1000E+31(WHEN MIN. R.F.=1)  AT K=   0, I=   0, J=   0

 MAXIMUM STEPSIZE WHICH MEETS STABILITY CRITERION OF THE DISPERSION TERM
 = 0.7287E-02(WHEN MIN. R.F.=1)  AT K=   3, I=   2, J=  30
     1 CALLS TO GCG PACKAGE FOR TRANSPORT TIME STEP   7 IN FLOW TIME STEP   5 STRESS PERIOD   2
    21 TOTAL ITERATIONS
0WARNING: NUMERICAL OSCILLATION ENCOUNTERED
 ONE OR MORE CELL CONCENTRATIONS LESS THAN CRHOREF
 SMALLEST DENSITY =  0.100E+04
 AT CELL (I,J,K) = (   1,  67,  17)

 
 SOLVING FOR HEAD 
 FLOW MODEL IS TRANSIENT
 FLOW MODEL CONTAINS CONSTANT-HEAD CELLS


 MAXIMUM STEPSIZE DURING WHICH ANY PARTICLE CANNOT MOVE MORE THAN ONE CELL
 = 0.1701    (WHEN MIN. R.F.=1)  AT K=   3, I=   2, J=  30

 MAXIMUM STEPSIZE WHICH MEETS STABILITY CRITERION OF THE ADVECTION TERM
 (FOR PURE FINITE-DIFFERENCE OPTION, MIXELM=0) 
 = 0.1348    (WHEN MIN. R.F.=1)  AT K=   3, I=   2, J=  31


 TOTAL NUMBER OF POINT SOURCES/SINKS PRESENT IN THE FLOW MODEL =   240

 MAXIMUM STEPSIZE WHICH MEETS STABILITY CRITERION OF THE SINK & SOURCE TERM
 = 0.1000E+31(WHEN MIN. R.F.=1)  AT K=   0, I=   0, J=   0

 MAXIMUM STEPSIZE WHICH MEETS STABILITY CRITERION OF THE DISPERSION TERM
 = 0.7287E-02(WHEN MIN. R.F.=1)  AT K=   3, I=   2, J=  30
     1 CALLS TO GCG PACKAGE FOR TRANSPORT TIME STEP   8 IN FLOW TIME STEP   5 STRESS PERIOD   2
    20 TOTAL ITERATIONS
  MAXIMUM CONCENTRATION CHANGES FOR EACH ITERATION:
  MAX. CHANGE LAYER,ROW,COL MAX. CHANGE LAYER,ROW,COL MAX. CHANGE LAYER,ROW,COL MAX. CHANGE LAYER,ROW,COL MAX. CHANGE LAYER,ROW,COL
 ------------------------------------------------------------------------------------------------------------------------------------
   0.9587E-02 ( 11,  1, 45)  0.3309E-02 (  6,  1, 40)  0.1695E-02 (  7,  1, 40)  0.8312E-03 (  7,  1, 39)  0.4070E-03 (  4,  2, 41)
   0.2488E-03 (  3,  1, 31)  0.1435E-03 (  4,  2, 31)  0.8813E-04 (  4,  2, 32)  0.5890E-04 (  3,  2, 32)  0.2884E-04 (  4,  3, 32)
   0.1907E-04 (  4,  3, 33)  0.1009E-04 (  3,  3, 33)  0.5542E-05 (  4,  3, 31)  0.3278E-05 (  3,  3, 31)  0.1612E-05 (  4,  1, 33)
   0.9712E-06 (  7,  1, 42)  0.5787E-06 (  4,  1, 34)  0.3241E-06 (  4,  1, 35)  0.1704E-06 (  3,  1, 35)  0.6709E-07 (  4,  1, 36)
0WARNING: NUMERICAL OSCILLATION ENCOUNTERED
 ONE OR MORE CELL CONCENTRATIONS LESS THAN CRHOREF
 SMALLEST DENSITY =  0.100E+04
 AT CELL (I,J,K) = (   1,  67,  17)



                                          ================================================
                                                         FROM TIME =   6.0000     TO    7.0000    

 
 SOLVING FOR HEAD 
 FLOW MODEL IS TRANSIENT
 FLOW MODEL CONTAINS CONSTANT-HEAD CELLS


 MAXIMUM STEPSIZE DURING WHICH ANY PARTICLE CANNOT MOVE MORE THAN ONE CELL
 = 0.1701    (WHEN MIN. R.F.=1)  AT K=   3, I=   2, J=  30

 MAXIMUM STEPSIZE WHICH MEETS STABILITY CRITERION OF THE ADVECTION TERM
 (FOR PURE FINITE-DIFFERENCE OPTION, MIXELM=0) 
 = 0.1348    (WHEN MIN. R.F.=1)  AT K=   3, I=   2, J=  31


 TOTAL NUMBER OF POINT SOURCES/SINKS PRESENT IN THE FLOW MODEL =   240

 MAXIMUM STEPSIZE WHICH MEETS STABILITY CRITERION OF THE SINK & SOURCE TERM
 = 0.1000E+31(WHEN MIN. R.F.=1)  AT K=   0, I=   0, J=   0

 MAXIMUM STEPSIZE WHICH MEETS STABILITY CRITERION OF THE DISPERSION TERM
 = 0.7288E-02(WHEN MIN. R.F.=1)  AT K=   3, I=   2, J=  30


     1 CALLS TO GCG PACKAGE FOR TRANSPORT TIME STEP   1 IN FLOW TIME STEP   6 STRESS PERIOD   2
    21 TOTAL ITERATIONS

 NO OUTPUT CONTROL FOR STRESS PERIOD    2   TIME STEP   6
0WARNING: NUMERICAL OSCILLATION ENCOUNTERED
 ONE OR MORE CELL CONCENTRATIONS LESS THAN CRHOREF
 SMALLEST DENSITY =  0.100E+04
 AT CELL (I,J,K) = (   1,  67,  17)

 
 SOLVING FOR HEAD 
 FLOW MODEL IS TRANSIENT
 FLOW MODEL CONTAINS CONSTANT-HEAD CELLS


 MAXIMUM STEPSIZE DURING WHICH ANY PARTICLE CANNOT MOVE MORE THAN ONE CELL
 = 0.1701    (WHEN MIN. R.F.=1)  AT K=   3, I=   2, J=  30

 MAXIMUM STEPSIZE WHICH MEETS STABILITY CRITERION OF THE ADVECTION TERM
 (FOR PURE FINITE-DIFFERENCE OPTION, MIXELM=0) 
 = 0.1348    (WHEN MIN. R.F.=1)  AT K=   3, I=   2, J=  31


 TOTAL NUMBER OF POINT SOURCES/SINKS PRESENT IN THE FLOW MODEL =   240

 MAXIMUM STEPSIZE WHICH MEETS STABILITY CRITERION OF THE SINK & SOURCE TERM
 = 0.1000E+31(WHEN MIN. R.F.=1)  AT K=   0, I=   0, J=   0

 MAXIMUM STEPSIZE WHICH MEETS STABILITY CRITERION OF THE DISPERSION TERM
 = 0.7289E-02(WHEN MIN. R.F.=1)  AT K=   3, I=   2, J=  30
     1 CALLS TO GCG PACKAGE FOR TRANSPORT TIME STEP   2 IN FLOW TIME STEP   6 STRESS PERIOD   2
    21 TOTAL ITERATIONS
0WARNING: NUMERICAL OSCILLATION ENCOUNTERED
 ONE OR MORE CELL CONCENTRATIONS LESS THAN CRHOREF
 SMALLEST DENSITY =  0.100E+04
 AT CELL (I,J,K) = (   1,  67,  17)

 
 SOLVING FOR HEAD 
 FLOW MODEL IS TRANSIENT
 FLOW MODEL CONTAINS CONSTANT-HEAD CELLS


 MAXIMUM STEPSIZE DURING WHICH ANY PARTICLE CANNOT MOVE MORE THAN ONE CELL
 = 0.1701    (WHEN MIN. R.F.=1)  AT K=   3, I=   2, J=  30

 MAXIMUM STEPSIZE WHICH MEETS STABILITY CRITERION OF THE ADVECTION TERM
 (FOR PURE FINITE-DIFFERENCE OPTION, MIXELM=0) 
 = 0.1348    (WHEN MIN. R.F.=1)  AT K=   3, I=   2, J=  31


 TOTAL NUMBER OF POINT SOURCES/SINKS PRESENT IN THE FLOW MODEL =   240

 MAXIMUM STEPSIZE WHICH MEETS STABILITY CRITERION OF THE SINK & SOURCE TERM
 = 0.1000E+31(WHEN MIN. R.F.=1)  AT K=   0, I=   0, J=   0

 MAXIMUM STEPSIZE WHICH MEETS STABILITY CRITERION OF THE DISPERSION TERM
 = 0.7289E-02(WHEN MIN. R.F.=1)  AT K=   3, I=   2, J=  30
     1 CALLS TO GCG PACKAGE FOR TRANSPORT TIME STEP   3 IN FLOW TIME STEP   6 STRESS PERIOD   2
    21 TOTAL ITERATIONS
0WARNING: NUMERICAL OSCILLATION ENCOUNTERED
 ONE OR MORE CELL CONCENTRATIONS LESS THAN CRHOREF
 SMALLEST DENSITY =  0.100E+04
 AT CELL (I,J,K) = (   1,  67,  17)

 
 SOLVING FOR HEAD 
 FLOW MODEL IS TRANSIENT
 FLOW MODEL CONTAINS CONSTANT-HEAD CELLS


 MAXIMUM STEPSIZE DURING WHICH ANY PARTICLE CANNOT MOVE MORE THAN ONE CELL
 = 0.1701    (WHEN MIN. R.F.=1)  AT K=   3, I=   2, J=  30

 MAXIMUM STEPSIZE WHICH MEETS STABILITY CRITERION OF THE ADVECTION TERM
 (FOR PURE FINITE-DIFFERENCE OPTION, MIXELM=0) 
 = 0.1348    (WHEN MIN. R.F.=1)  AT K=   3, I=   2, J=  31


 TOTAL NUMBER OF POINT SOURCES/SINKS PRESENT IN THE FLOW MODEL =   240

 MAXIMUM STEPSIZE WHICH MEETS STABILITY CRITERION OF THE SINK & SOURCE TERM
 = 0.1000E+31(WHEN MIN. R.F.=1)  AT K=   0, I=   0, J=   0

 MAXIMUM STEPSIZE WHICH MEETS STABILITY CRITERION OF THE DISPERSION TERM
 = 0.7290E-02(WHEN MIN. R.F.=1)  AT K=   3, I=   2, J=  30
     1 CALLS TO GCG PACKAGE FOR TRANSPORT TIME STEP   4 IN FLOW TIME STEP   6 STRESS PERIOD   2
    21 TOTAL ITERATIONS
0WARNING: NUMERICAL OSCILLATION ENCOUNTERED
 ONE OR MORE CELL CONCENTRATIONS LESS THAN CRHOREF
 SMALLEST DENSITY =  0.100E+04
 AT CELL (I,J,K) = (   1,  67,  17)

 
 SOLVING FOR HEAD 
 FLOW MODEL IS TRANSIENT
 FLOW MODEL CONTAINS CONSTANT-HEAD CELLS


 MAXIMUM STEPSIZE DURING WHICH ANY PARTICLE CANNOT MOVE MORE THAN ONE CELL
 = 0.1701    (WHEN MIN. R.F.=1)  AT K=   3, I=   2, J=  30

 MAXIMUM STEPSIZE WHICH MEETS STABILITY CRITERION OF THE ADVECTION TERM
 (FOR PURE FINITE-DIFFERENCE OPTION, MIXELM=0) 
 = 0.1348    (WHEN MIN. R.F.=1)  AT K=   3, I=   2, J=  31


 TOTAL NUMBER OF POINT SOURCES/SINKS PRESENT IN THE FLOW MODEL =   240

 MAXIMUM STEPSIZE WHICH MEETS STABILITY CRITERION OF THE SINK & SOURCE TERM
 = 0.1000E+31(WHEN MIN. R.F.=1)  AT K=   0, I=   0, J=   0

 MAXIMUM STEPSIZE WHICH MEETS STABILITY CRITERION OF THE DISPERSION TERM
 = 0.7290E-02(WHEN MIN. R.F.=1)  AT K=   3, I=   2, J=  30
     1 CALLS TO GCG PACKAGE FOR TRANSPORT TIME STEP   5 IN FLOW TIME STEP   6 STRESS PERIOD   2
    21 TOTAL ITERATIONS
0WARNING: NUMERICAL OSCILLATION ENCOUNTERED
 ONE OR MORE CELL CONCENTRATIONS LESS THAN CRHOREF
 SMALLEST DENSITY =  0.100E+04
 AT CELL (I,J,K) = (   1,  68,  17)

 
 SOLVING FOR HEAD 
 FLOW MODEL IS TRANSIENT
 FLOW MODEL CONTAINS CONSTANT-HEAD CELLS


 MAXIMUM STEPSIZE DURING WHICH ANY PARTICLE CANNOT MOVE MORE THAN ONE CELL
 = 0.1701    (WHEN MIN. R.F.=1)  AT K=   3, I=   2, J=  30

 MAXIMUM STEPSIZE WHICH MEETS STABILITY CRITERION OF THE ADVECTION TERM
 (FOR PURE FINITE-DIFFERENCE OPTION, MIXELM=0) 
 = 0.1348    (WHEN MIN. R.F.=1)  AT K=   3, I=   2, J=  31


 TOTAL NUMBER OF POINT SOURCES/SINKS PRESENT IN THE FLOW MODEL =   240

 MAXIMUM STEPSIZE WHICH MEETS STABILITY CRITERION OF THE SINK & SOURCE TERM
 = 0.1000E+31(WHEN MIN. R.F.=1)  AT K=   0, I=   0, J=   0

 MAXIMUM STEPSIZE WHICH MEETS STABILITY CRITERION OF THE DISPERSION TERM
 = 0.7291E-02(WHEN MIN. R.F.=1)  AT K=   3, I=   2, J=  30
     1 CALLS TO GCG PACKAGE FOR TRANSPORT TIME STEP   6 IN FLOW TIME STEP   6 STRESS PERIOD   2
    21 TOTAL ITERATIONS
0WARNING: NUMERICAL OSCILLATION ENCOUNTERED
 ONE OR MORE CELL CONCENTRATIONS LESS THAN CRHOREF
 SMALLEST DENSITY =  0.100E+04
 AT CELL (I,J,K) = (   1,  68,  17)

 
 SOLVING FOR HEAD 
 FLOW MODEL IS TRANSIENT
 FLOW MODEL CONTAINS CONSTANT-HEAD CELLS


 MAXIMUM STEPSIZE DURING WHICH ANY PARTICLE CANNOT MOVE MORE THAN ONE CELL
 = 0.1701    (WHEN MIN. R.F.=1)  AT K=   3, I=   2, J=  30

 MAXIMUM STEPSIZE WHICH MEETS STABILITY CRITERION OF THE ADVECTION TERM
 (FOR PURE FINITE-DIFFERENCE OPTION, MIXELM=0) 
 = 0.1348    (WHEN MIN. R.F.=1)  AT K=   3, I=   2, J=  31


 TOTAL NUMBER OF POINT SOURCES/SINKS PRESENT IN THE FLOW MODEL =   240

 MAXIMUM STEPSIZE WHICH MEETS STABILITY CRITERION OF THE SINK & SOURCE TERM
 = 0.1000E+31(WHEN MIN. R.F.=1)  AT K=   0, I=   0, J=   0

 MAXIMUM STEPSIZE WHICH MEETS STABILITY CRITERION OF THE DISPERSION TERM
 = 0.7291E-02(WHEN MIN. R.F.=1)  AT K=   3, I=   2, J=  30
     1 CALLS TO GCG PACKAGE FOR TRANSPORT TIME STEP   7 IN FLOW TIME STEP   6 STRESS PERIOD   2
    21 TOTAL ITERATIONS
0WARNING: NUMERICAL OSCILLATION ENCOUNTERED
 ONE OR MORE CELL CONCENTRATIONS LESS THAN CRHOREF
 SMALLEST DENSITY =  0.100E+04
 AT CELL (I,J,K) = (   1,  68,  17)

 
 SOLVING FOR HEAD 
 FLOW MODEL IS TRANSIENT
 FLOW MODEL CONTAINS CONSTANT-HEAD CELLS


 MAXIMUM STEPSIZE DURING WHICH ANY PARTICLE CANNOT MOVE MORE THAN ONE CELL
 = 0.1701    (WHEN MIN. R.F.=1)  AT K=   3, I=   2, J=  30

 MAXIMUM STEPSIZE WHICH MEETS STABILITY CRITERION OF THE ADVECTION TERM
 (FOR PURE FINITE-DIFFERENCE OPTION, MIXELM=0) 
 = 0.1349    (WHEN MIN. R.F.=1)  AT K=   3, I=   2, J=  31


 TOTAL NUMBER OF POINT SOURCES/SINKS PRESENT IN THE FLOW MODEL =   240

 MAXIMUM STEPSIZE WHICH MEETS STABILITY CRITERION OF THE SINK & SOURCE TERM
 = 0.1000E+31(WHEN MIN. R.F.=1)  AT K=   0, I=   0, J=   0

 MAXIMUM STEPSIZE WHICH MEETS STABILITY CRITERION OF THE DISPERSION TERM
 = 0.7291E-02(WHEN MIN. R.F.=1)  AT K=   3, I=   2, J=  30
     1 CALLS TO GCG PACKAGE FOR TRANSPORT TIME STEP   8 IN FLOW TIME STEP   6 STRESS PERIOD   2
    20 TOTAL ITERATIONS
  MAXIMUM CONCENTRATION CHANGES FOR EACH ITERATION:
  MAX. CHANGE LAYER,ROW,COL MAX. CHANGE LAYER,ROW,COL MAX. CHANGE LAYER,ROW,COL MAX. CHANGE LAYER,ROW,COL MAX. CHANGE LAYER,ROW,COL
 ------------------------------------------------------------------------------------------------------------------------------------
   0.8743E-02 ( 11,  1, 45)  0.2772E-02 ( 11,  1, 46)  0.1269E-02 (  7,  1, 40)  0.6193E-03 (  7,  1, 39)  0.3102E-03 (  4,  2, 41)
   0.1915E-03 (  3,  1, 31)  0.1129E-03 (  4,  2, 31)  0.6957E-04 (  4,  2, 32)  0.4609E-04 (  3,  2, 32)  0.2308E-04 (  4,  3, 32)
   0.1476E-04 (  4,  3, 33)  0.7921E-05 (  3,  3, 33)  0.4343E-05 (  4,  3, 31)  0.2564E-05 (  3,  3, 31)  0.1264E-05 (  4,  1, 33)
   0.7323E-06 (  7,  1, 42)  0.4340E-06 (  4,  1, 34)  0.2416E-06 (  4,  1, 35)  0.1256E-06 (  3,  1, 35)  0.5109E-07 (  3,  3, 36)
0WARNING: NUMERICAL OSCILLATION ENCOUNTERED
 ONE OR MORE CELL CONCENTRATIONS LESS THAN CRHOREF
 SMALLEST DENSITY =  0.100E+04
 AT CELL (I,J,K) = (   3,  63,  21)



                                          ================================================
                                                         FROM TIME =   7.0000     TO    8.0000    

 
 SOLVING FOR HEAD 
 FLOW MODEL IS TRANSIENT
 FLOW MODEL CONTAINS CONSTANT-HEAD CELLS


 MAXIMUM STEPSIZE DURING WHICH ANY PARTICLE CANNOT MOVE MORE THAN ONE CELL
 = 0.1702    (WHEN MIN. R.F.=1)  AT K=   3, I=   2, J=  30

 MAXIMUM STEPSIZE WHICH MEETS STABILITY CRITERION OF THE ADVECTION TERM
 (FOR PURE FINITE-DIFFERENCE OPTION, MIXELM=0) 
 = 0.1349    (WHEN MIN. R.F.=1)  AT K=   3, I=   2, J=  31


 TOTAL NUMBER OF POINT SOURCES/SINKS PRESENT IN THE FLOW MODEL =   240

 MAXIMUM STEPSIZE WHICH MEETS STABILITY CRITERION OF THE SINK & SOURCE TERM
 = 0.1000E+31(WHEN MIN. R.F.=1)  AT K=   0, I=   0, J=   0

 MAXIMUM STEPSIZE WHICH MEETS STABILITY CRITERION OF THE DISPERSION TERM
 = 0.7292E-02(WHEN MIN. R.F.=1)  AT K=   3, I=   2, J=  30


     1 CALLS TO GCG PACKAGE FOR TRANSPORT TIME STEP   1 IN FLOW TIME STEP   7 STRESS PERIOD   2
    21 TOTAL ITERATIONS

 NO OUTPUT CONTROL FOR STRESS PERIOD    2   TIME STEP   7
0WARNING: NUMERICAL OSCILLATION ENCOUNTERED
 ONE OR MORE CELL CONCENTRATIONS LESS THAN CRHOREF
 SMALLEST DENSITY =  0.100E+04
 AT CELL (I,J,K) = (   3,  63,  21)

 
 SOLVING FOR HEAD 
 FLOW MODEL IS TRANSIENT
 FLOW MODEL CONTAINS CONSTANT-HEAD CELLS


 MAXIMUM STEPSIZE DURING WHICH ANY PARTICLE CANNOT MOVE MORE THAN ONE CELL
 = 0.1702    (WHEN MIN. R.F.=1)  AT K=   3, I=   2, J=  30

 MAXIMUM STEPSIZE WHICH MEETS STABILITY CRITERION OF THE ADVECTION TERM
 (FOR PURE FINITE-DIFFERENCE OPTION, MIXELM=0) 
 = 0.1349    (WHEN MIN. R.F.=1)  AT K=   3, I=   2, J=  31


 TOTAL NUMBER OF POINT SOURCES/SINKS PRESENT IN THE FLOW MODEL =   240

 MAXIMUM STEPSIZE WHICH MEETS STABILITY CRITERION OF THE SINK & SOURCE TERM
 = 0.1000E+31(WHEN MIN. R.F.=1)  AT K=   0, I=   0, J=   0

 MAXIMUM STEPSIZE WHICH MEETS STABILITY CRITERION OF THE DISPERSION TERM
 = 0.7292E-02(WHEN MIN. R.F.=1)  AT K=   3, I=   2, J=  30
     1 CALLS TO GCG PACKAGE FOR TRANSPORT TIME STEP   2 IN FLOW TIME STEP   7 STRESS PERIOD   2
    21 TOTAL ITERATIONS
0WARNING: NUMERICAL OSCILLATION ENCOUNTERED
 ONE OR MORE CELL CONCENTRATIONS LESS THAN CRHOREF
 SMALLEST DENSITY =  0.100E+04
 AT CELL (I,J,K) = (   3,  63,  21)

 
 SOLVING FOR HEAD 
 FLOW MODEL IS TRANSIENT
 FLOW MODEL CONTAINS CONSTANT-HEAD CELLS


 MAXIMUM STEPSIZE DURING WHICH ANY PARTICLE CANNOT MOVE MORE THAN ONE CELL
 = 0.1702    (WHEN MIN. R.F.=1)  AT K=   3, I=   2, J=  30

 MAXIMUM STEPSIZE WHICH MEETS STABILITY CRITERION OF THE ADVECTION TERM
 (FOR PURE FINITE-DIFFERENCE OPTION, MIXELM=0) 
 = 0.1349    (WHEN MIN. R.F.=1)  AT K=   3, I=   2, J=  31


 TOTAL NUMBER OF POINT SOURCES/SINKS PRESENT IN THE FLOW MODEL =   240

 MAXIMUM STEPSIZE WHICH MEETS STABILITY CRITERION OF THE SINK & SOURCE TERM
 = 0.1000E+31(WHEN MIN. R.F.=1)  AT K=   0, I=   0, J=   0

 MAXIMUM STEPSIZE WHICH MEETS STABILITY CRITERION OF THE DISPERSION TERM
 = 0.7292E-02(WHEN MIN. R.F.=1)  AT K=   3, I=   2, J=  30
     1 CALLS TO GCG PACKAGE FOR TRANSPORT TIME STEP   3 IN FLOW TIME STEP   7 STRESS PERIOD   2
    21 TOTAL ITERATIONS
0WARNING: NUMERICAL OSCILLATION ENCOUNTERED
 ONE OR MORE CELL CONCENTRATIONS LESS THAN CRHOREF
 SMALLEST DENSITY =  0.100E+04
 AT CELL (I,J,K) = (   3,  63,  21)

 
 SOLVING FOR HEAD 
 FLOW MODEL IS TRANSIENT
 FLOW MODEL CONTAINS CONSTANT-HEAD CELLS


 MAXIMUM STEPSIZE DURING WHICH ANY PARTICLE CANNOT MOVE MORE THAN ONE CELL
 = 0.1702    (WHEN MIN. R.F.=1)  AT K=   3, I=   2, J=  30

 MAXIMUM STEPSIZE WHICH MEETS STABILITY CRITERION OF THE ADVECTION TERM
 (FOR PURE FINITE-DIFFERENCE OPTION, MIXELM=0) 
 = 0.1349    (WHEN MIN. R.F.=1)  AT K=   3, I=   2, J=  31


 TOTAL NUMBER OF POINT SOURCES/SINKS PRESENT IN THE FLOW MODEL =   240

 MAXIMUM STEPSIZE WHICH MEETS STABILITY CRITERION OF THE SINK & SOURCE TERM
 = 0.1000E+31(WHEN MIN. R.F.=1)  AT K=   0, I=   0, J=   0

 MAXIMUM STEPSIZE WHICH MEETS STABILITY CRITERION OF THE DISPERSION TERM
 = 0.7293E-02(WHEN MIN. R.F.=1)  AT K=   3, I=   2, J=  30
     1 CALLS TO GCG PACKAGE FOR TRANSPORT TIME STEP   4 IN FLOW TIME STEP   7 STRESS PERIOD   2
    21 TOTAL ITERATIONS
0WARNING: NUMERICAL OSCILLATION ENCOUNTERED
 ONE OR MORE CELL CONCENTRATIONS LESS THAN CRHOREF
 SMALLEST DENSITY =  0.100E+04
 AT CELL (I,J,K) = (   3,  63,  21)

 
 SOLVING FOR HEAD 
 FLOW MODEL IS TRANSIENT
 FLOW MODEL CONTAINS CONSTANT-HEAD CELLS


 MAXIMUM STEPSIZE DURING WHICH ANY PARTICLE CANNOT MOVE MORE THAN ONE CELL
 = 0.1702    (WHEN MIN. R.F.=1)  AT K=   3, I=   2, J=  30

 MAXIMUM STEPSIZE WHICH MEETS STABILITY CRITERION OF THE ADVECTION TERM
 (FOR PURE FINITE-DIFFERENCE OPTION, MIXELM=0) 
 = 0.1349    (WHEN MIN. R.F.=1)  AT K=   3, I=   2, J=  31


 TOTAL NUMBER OF POINT SOURCES/SINKS PRESENT IN THE FLOW MODEL =   240

 MAXIMUM STEPSIZE WHICH MEETS STABILITY CRITERION OF THE SINK & SOURCE TERM
 = 0.1000E+31(WHEN MIN. R.F.=1)  AT K=   0, I=   0, J=   0

 MAXIMUM STEPSIZE WHICH MEETS STABILITY CRITERION OF THE DISPERSION TERM
 = 0.7293E-02(WHEN MIN. R.F.=1)  AT K=   3, I=   2, J=  30
     1 CALLS TO GCG PACKAGE FOR TRANSPORT TIME STEP   5 IN FLOW TIME STEP   7 STRESS PERIOD   2
    21 TOTAL ITERATIONS
0WARNING: NUMERICAL OSCILLATION ENCOUNTERED
 ONE OR MORE CELL CONCENTRATIONS LESS THAN CRHOREF
 SMALLEST DENSITY =  0.100E+04
 AT CELL (I,J,K) = (   3,  63,  21)

 
 SOLVING FOR HEAD 
 FLOW MODEL IS TRANSIENT
 FLOW MODEL CONTAINS CONSTANT-HEAD CELLS


 MAXIMUM STEPSIZE DURING WHICH ANY PARTICLE CANNOT MOVE MORE THAN ONE CELL
 = 0.1702    (WHEN MIN. R.F.=1)  AT K=   3, I=   2, J=  30

 MAXIMUM STEPSIZE WHICH MEETS STABILITY CRITERION OF THE ADVECTION TERM
 (FOR PURE FINITE-DIFFERENCE OPTION, MIXELM=0) 
 = 0.1349    (WHEN MIN. R.F.=1)  AT K=   3, I=   2, J=  31


 TOTAL NUMBER OF POINT SOURCES/SINKS PRESENT IN THE FLOW MODEL =   240

 MAXIMUM STEPSIZE WHICH MEETS STABILITY CRITERION OF THE SINK & SOURCE TERM
 = 0.1000E+31(WHEN MIN. R.F.=1)  AT K=   0, I=   0, J=   0

 MAXIMUM STEPSIZE WHICH MEETS STABILITY CRITERION OF THE DISPERSION TERM
 = 0.7293E-02(WHEN MIN. R.F.=1)  AT K=   3, I=   2, J=  30
     1 CALLS TO GCG PACKAGE FOR TRANSPORT TIME STEP   6 IN FLOW TIME STEP   7 STRESS PERIOD   2
    21 TOTAL ITERATIONS
0WARNING: NUMERICAL OSCILLATION ENCOUNTERED
 ONE OR MORE CELL CONCENTRATIONS LESS THAN CRHOREF
 SMALLEST DENSITY =  0.100E+04
 AT CELL (I,J,K) = (   3,  63,  21)

 
 SOLVING FOR HEAD 
 FLOW MODEL IS TRANSIENT
 FLOW MODEL CONTAINS CONSTANT-HEAD CELLS


 MAXIMUM STEPSIZE DURING WHICH ANY PARTICLE CANNOT MOVE MORE THAN ONE CELL
 = 0.1702    (WHEN MIN. R.F.=1)  AT K=   3, I=   2, J=  30

 MAXIMUM STEPSIZE WHICH MEETS STABILITY CRITERION OF THE ADVECTION TERM
 (FOR PURE FINITE-DIFFERENCE OPTION, MIXELM=0) 
 = 0.1349    (WHEN MIN. R.F.=1)  AT K=   3, I=   2, J=  31


 TOTAL NUMBER OF POINT SOURCES/SINKS PRESENT IN THE FLOW MODEL =   240

 MAXIMUM STEPSIZE WHICH MEETS STABILITY CRITERION OF THE SINK & SOURCE TERM
 = 0.1000E+31(WHEN MIN. R.F.=1)  AT K=   0, I=   0, J=   0

 MAXIMUM STEPSIZE WHICH MEETS STABILITY CRITERION OF THE DISPERSION TERM
 = 0.7293E-02(WHEN MIN. R.F.=1)  AT K=   3, I=   2, J=  30
     1 CALLS TO GCG PACKAGE FOR TRANSPORT TIME STEP   7 IN FLOW TIME STEP   7 STRESS PERIOD   2
    21 TOTAL ITERATIONS
0WARNING: NUMERICAL OSCILLATION ENCOUNTERED
 ONE OR MORE CELL CONCENTRATIONS LESS THAN CRHOREF
 SMALLEST DENSITY =  0.100E+04
 AT CELL (I,J,K) = (   3,  63,  21)

 
 SOLVING FOR HEAD 
 FLOW MODEL IS TRANSIENT
 FLOW MODEL CONTAINS CONSTANT-HEAD CELLS


 MAXIMUM STEPSIZE DURING WHICH ANY PARTICLE CANNOT MOVE MORE THAN ONE CELL
 = 0.1702    (WHEN MIN. R.F.=1)  AT K=   3, I=   2, J=  30

 MAXIMUM STEPSIZE WHICH MEETS STABILITY CRITERION OF THE ADVECTION TERM
 (FOR PURE FINITE-DIFFERENCE OPTION, MIXELM=0) 
 = 0.1349    (WHEN MIN. R.F.=1)  AT K=   3, I=   2, J=  31


 TOTAL NUMBER OF POINT SOURCES/SINKS PRESENT IN THE FLOW MODEL =   240

 MAXIMUM STEPSIZE WHICH MEETS STABILITY CRITERION OF THE SINK & SOURCE TERM
 = 0.1000E+31(WHEN MIN. R.F.=1)  AT K=   0, I=   0, J=   0

 MAXIMUM STEPSIZE WHICH MEETS STABILITY CRITERION OF THE DISPERSION TERM
 = 0.7294E-02(WHEN MIN. R.F.=1)  AT K=   3, I=   2, J=  30
     1 CALLS TO GCG PACKAGE FOR TRANSPORT TIME STEP   8 IN FLOW TIME STEP   7 STRESS PERIOD   2
    19 TOTAL ITERATIONS
  MAXIMUM CONCENTRATION CHANGES FOR EACH ITERATION:
  MAX. CHANGE LAYER,ROW,COL MAX. CHANGE LAYER,ROW,COL MAX. CHANGE LAYER,ROW,COL MAX. CHANGE LAYER,ROW,COL MAX. CHANGE LAYER,ROW,COL
 ------------------------------------------------------------------------------------------------------------------------------------
   0.7813E-02 ( 11,  1, 46)  0.2293E-02 ( 11,  1, 46)  0.9727E-03 (  7,  1, 40)  0.4834E-03 (  7,  1, 40)  0.2443E-03 (  6,  1, 40)
   0.1524E-03 (  3,  1, 31)  0.9122E-04 (  4,  2, 31)  0.5650E-04 (  4,  2, 32)  0.3717E-04 (  3,  2, 32)  0.1895E-04 (  4,  3, 32)
   0.1181E-04 (  4,  3, 33)  0.6405E-05 (  3,  3, 33)  0.3516E-05 (  4,  3, 31)  0.2072E-05 (  3,  3, 31)  0.1022E-05 (  4,  1, 33)
   0.5615E-06 (  7,  1, 42)  0.3389E-06 (  4,  1, 34)  0.1876E-06 (  4,  1, 35)  0.9721E-07 (  4,  3, 36)
0WARNING: NUMERICAL OSCILLATION ENCOUNTERED
 ONE OR MORE CELL CONCENTRATIONS LESS THAN CRHOREF
 SMALLEST DENSITY =  0.100E+04
 AT CELL (I,J,K) = (   3,  64,  21)



                                          ================================================
                                                         FROM TIME =   8.0000     TO    9.0000    

 
 SOLVING FOR HEAD 
 FLOW MODEL IS TRANSIENT
 FLOW MODEL CONTAINS CONSTANT-HEAD CELLS


 MAXIMUM STEPSIZE DURING WHICH ANY PARTICLE CANNOT MOVE MORE THAN ONE CELL
 = 0.1702    (WHEN MIN. R.F.=1)  AT K=   3, I=   2, J=  30

 MAXIMUM STEPSIZE WHICH MEETS STABILITY CRITERION OF THE ADVECTION TERM
 (FOR PURE FINITE-DIFFERENCE OPTION, MIXELM=0) 
 = 0.1349    (WHEN MIN. R.F.=1)  AT K=   3, I=   2, J=  31


 TOTAL NUMBER OF POINT SOURCES/SINKS PRESENT IN THE FLOW MODEL =   240

 MAXIMUM STEPSIZE WHICH MEETS STABILITY CRITERION OF THE SINK & SOURCE TERM
 = 0.1000E+31(WHEN MIN. R.F.=1)  AT K=   0, I=   0, J=   0

 MAXIMUM STEPSIZE WHICH MEETS STABILITY CRITERION OF THE DISPERSION TERM
 = 0.7294E-02(WHEN MIN. R.F.=1)  AT K=   3, I=   2, J=  30


     1 CALLS TO GCG PACKAGE FOR TRANSPORT TIME STEP   1 IN FLOW TIME STEP   8 STRESS PERIOD   2
    21 TOTAL ITERATIONS

 NO OUTPUT CONTROL FOR STRESS PERIOD    2   TIME STEP   8
0WARNING: NUMERICAL OSCILLATION ENCOUNTERED
 ONE OR MORE CELL CONCENTRATIONS LESS THAN CRHOREF
 SMALLEST DENSITY =  0.100E+04
 AT CELL (I,J,K) = (   3,  64,  21)

 
 SOLVING FOR HEAD 
 FLOW MODEL IS TRANSIENT
 FLOW MODEL CONTAINS CONSTANT-HEAD CELLS


 MAXIMUM STEPSIZE DURING WHICH ANY PARTICLE CANNOT MOVE MORE THAN ONE CELL
 = 0.1702    (WHEN MIN. R.F.=1)  AT K=   3, I=   2, J=  30

 MAXIMUM STEPSIZE WHICH MEETS STABILITY CRITERION OF THE ADVECTION TERM
 (FOR PURE FINITE-DIFFERENCE OPTION, MIXELM=0) 
 = 0.1349    (WHEN MIN. R.F.=1)  AT K=   3, I=   2, J=  31


 TOTAL NUMBER OF POINT SOURCES/SINKS PRESENT IN THE FLOW MODEL =   240

 MAXIMUM STEPSIZE WHICH MEETS STABILITY CRITERION OF THE SINK & SOURCE TERM
 = 0.1000E+31(WHEN MIN. R.F.=1)  AT K=   0, I=   0, J=   0

 MAXIMUM STEPSIZE WHICH MEETS STABILITY CRITERION OF THE DISPERSION TERM
 = 0.7294E-02(WHEN MIN. R.F.=1)  AT K=   3, I=   2, J=  30
     1 CALLS TO GCG PACKAGE FOR TRANSPORT TIME STEP   2 IN FLOW TIME STEP   8 STRESS PERIOD   2
    21 TOTAL ITERATIONS
0WARNING: NUMERICAL OSCILLATION ENCOUNTERED
 ONE OR MORE CELL CONCENTRATIONS LESS THAN CRHOREF
 SMALLEST DENSITY =  0.100E+04
 AT CELL (I,J,K) = (   3,  64,  21)

 
 SOLVING FOR HEAD 
 FLOW MODEL IS TRANSIENT
 FLOW MODEL CONTAINS CONSTANT-HEAD CELLS


 MAXIMUM STEPSIZE DURING WHICH ANY PARTICLE CANNOT MOVE MORE THAN ONE CELL
 = 0.1702    (WHEN MIN. R.F.=1)  AT K=   3, I=   2, J=  30

 MAXIMUM STEPSIZE WHICH MEETS STABILITY CRITERION OF THE ADVECTION TERM
 (FOR PURE FINITE-DIFFERENCE OPTION, MIXELM=0) 
 = 0.1349    (WHEN MIN. R.F.=1)  AT K=   3, I=   2, J=  31


 TOTAL NUMBER OF POINT SOURCES/SINKS PRESENT IN THE FLOW MODEL =   240

 MAXIMUM STEPSIZE WHICH MEETS STABILITY CRITERION OF THE SINK & SOURCE TERM
 = 0.1000E+31(WHEN MIN. R.F.=1)  AT K=   0, I=   0, J=   0

 MAXIMUM STEPSIZE WHICH MEETS STABILITY CRITERION OF THE DISPERSION TERM
 = 0.7294E-02(WHEN MIN. R.F.=1)  AT K=   3, I=   2, J=  30
     1 CALLS TO GCG PACKAGE FOR TRANSPORT TIME STEP   3 IN FLOW TIME STEP   8 STRESS PERIOD   2
    21 TOTAL ITERATIONS
0WARNING: NUMERICAL OSCILLATION ENCOUNTERED
 ONE OR MORE CELL CONCENTRATIONS LESS THAN CRHOREF
 SMALLEST DENSITY =  0.100E+04
 AT CELL (I,J,K) = (   3,  64,  21)

 
 SOLVING FOR HEAD 
 FLOW MODEL IS TRANSIENT
 FLOW MODEL CONTAINS CONSTANT-HEAD CELLS


 MAXIMUM STEPSIZE DURING WHICH ANY PARTICLE CANNOT MOVE MORE THAN ONE CELL
 = 0.1702    (WHEN MIN. R.F.=1)  AT K=   3, I=   2, J=  30

 MAXIMUM STEPSIZE WHICH MEETS STABILITY CRITERION OF THE ADVECTION TERM
 (FOR PURE FINITE-DIFFERENCE OPTION, MIXELM=0) 
 = 0.1349    (WHEN MIN. R.F.=1)  AT K=   3, I=   2, J=  31


 TOTAL NUMBER OF POINT SOURCES/SINKS PRESENT IN THE FLOW MODEL =   240

 MAXIMUM STEPSIZE WHICH MEETS STABILITY CRITERION OF THE SINK & SOURCE TERM
 = 0.1000E+31(WHEN MIN. R.F.=1)  AT K=   0, I=   0, J=   0

 MAXIMUM STEPSIZE WHICH MEETS STABILITY CRITERION OF THE DISPERSION TERM
 = 0.7294E-02(WHEN MIN. R.F.=1)  AT K=   3, I=   2, J=  30
     1 CALLS TO GCG PACKAGE FOR TRANSPORT TIME STEP   4 IN FLOW TIME STEP   8 STRESS PERIOD   2
    21 TOTAL ITERATIONS
0WARNING: NUMERICAL OSCILLATION ENCOUNTERED
 ONE OR MORE CELL CONCENTRATIONS LESS THAN CRHOREF
 SMALLEST DENSITY =  0.100E+04
 AT CELL (I,J,K) = (   3,  64,  21)

 
 SOLVING FOR HEAD 
 FLOW MODEL IS TRANSIENT
 FLOW MODEL CONTAINS CONSTANT-HEAD CELLS


 MAXIMUM STEPSIZE DURING WHICH ANY PARTICLE CANNOT MOVE MORE THAN ONE CELL
 = 0.1702    (WHEN MIN. R.F.=1)  AT K=   3, I=   2, J=  30

 MAXIMUM STEPSIZE WHICH MEETS STABILITY CRITERION OF THE ADVECTION TERM
 (FOR PURE FINITE-DIFFERENCE OPTION, MIXELM=0) 
 = 0.1349    (WHEN MIN. R.F.=1)  AT K=   3, I=   2, J=  31


 TOTAL NUMBER OF POINT SOURCES/SINKS PRESENT IN THE FLOW MODEL =   240

 MAXIMUM STEPSIZE WHICH MEETS STABILITY CRITERION OF THE SINK & SOURCE TERM
 = 0.1000E+31(WHEN MIN. R.F.=1)  AT K=   0, I=   0, J=   0

 MAXIMUM STEPSIZE WHICH MEETS STABILITY CRITERION OF THE DISPERSION TERM
 = 0.7294E-02(WHEN MIN. R.F.=1)  AT K=   3, I=   2, J=  30
     1 CALLS TO GCG PACKAGE FOR TRANSPORT TIME STEP   5 IN FLOW TIME STEP   8 STRESS PERIOD   2
    21 TOTAL ITERATIONS
0WARNING: NUMERICAL OSCILLATION ENCOUNTERED
 ONE OR MORE CELL CONCENTRATIONS LESS THAN CRHOREF
 SMALLEST DENSITY =  0.100E+04
 AT CELL (I,J,K) = (   3,  64,  21)

 
 SOLVING FOR HEAD 
 FLOW MODEL IS TRANSIENT
 FLOW MODEL CONTAINS CONSTANT-HEAD CELLS


 MAXIMUM STEPSIZE DURING WHICH ANY PARTICLE CANNOT MOVE MORE THAN ONE CELL
 = 0.1702    (WHEN MIN. R.F.=1)  AT K=   3, I=   2, J=  30

 MAXIMUM STEPSIZE WHICH MEETS STABILITY CRITERION OF THE ADVECTION TERM
 (FOR PURE FINITE-DIFFERENCE OPTION, MIXELM=0) 
 = 0.1349    (WHEN MIN. R.F.=1)  AT K=   3, I=   2, J=  31


 TOTAL NUMBER OF POINT SOURCES/SINKS PRESENT IN THE FLOW MODEL =   240

 MAXIMUM STEPSIZE WHICH MEETS STABILITY CRITERION OF THE SINK & SOURCE TERM
 = 0.1000E+31(WHEN MIN. R.F.=1)  AT K=   0, I=   0, J=   0

 MAXIMUM STEPSIZE WHICH MEETS STABILITY CRITERION OF THE DISPERSION TERM
 = 0.7294E-02(WHEN MIN. R.F.=1)  AT K=   3, I=   2, J=  30
     1 CALLS TO GCG PACKAGE FOR TRANSPORT TIME STEP   6 IN FLOW TIME STEP   8 STRESS PERIOD   2
    21 TOTAL ITERATIONS
0WARNING: NUMERICAL OSCILLATION ENCOUNTERED
 ONE OR MORE CELL CONCENTRATIONS LESS THAN CRHOREF
 SMALLEST DENSITY =  0.100E+04
 AT CELL (I,J,K) = (   3,  64,  21)

 
 SOLVING FOR HEAD 
 FLOW MODEL IS TRANSIENT
 FLOW MODEL CONTAINS CONSTANT-HEAD CELLS


 MAXIMUM STEPSIZE DURING WHICH ANY PARTICLE CANNOT MOVE MORE THAN ONE CELL
 = 0.1702    (WHEN MIN. R.F.=1)  AT K=   3, I=   2, J=  30

 MAXIMUM STEPSIZE WHICH MEETS STABILITY CRITERION OF THE ADVECTION TERM
 (FOR PURE FINITE-DIFFERENCE OPTION, MIXELM=0) 
 = 0.1349    (WHEN MIN. R.F.=1)  AT K=   3, I=   2, J=  31


 TOTAL NUMBER OF POINT SOURCES/SINKS PRESENT IN THE FLOW MODEL =   240

 MAXIMUM STEPSIZE WHICH MEETS STABILITY CRITERION OF THE SINK & SOURCE TERM
 = 0.1000E+31(WHEN MIN. R.F.=1)  AT K=   0, I=   0, J=   0

 MAXIMUM STEPSIZE WHICH MEETS STABILITY CRITERION OF THE DISPERSION TERM
 = 0.7295E-02(WHEN MIN. R.F.=1)  AT K=   3, I=   2, J=  30
     1 CALLS TO GCG PACKAGE FOR TRANSPORT TIME STEP   7 IN FLOW TIME STEP   8 STRESS PERIOD   2
    21 TOTAL ITERATIONS
0WARNING: NUMERICAL OSCILLATION ENCOUNTERED
 ONE OR MORE CELL CONCENTRATIONS LESS THAN CRHOREF
 SMALLEST DENSITY =  0.100E+04
 AT CELL (I,J,K) = (   3,  64,  21)

 
 SOLVING FOR HEAD 
 FLOW MODEL IS TRANSIENT
 FLOW MODEL CONTAINS CONSTANT-HEAD CELLS


 MAXIMUM STEPSIZE DURING WHICH ANY PARTICLE CANNOT MOVE MORE THAN ONE CELL
 = 0.1702    (WHEN MIN. R.F.=1)  AT K=   3, I=   2, J=  30

 MAXIMUM STEPSIZE WHICH MEETS STABILITY CRITERION OF THE ADVECTION TERM
 (FOR PURE FINITE-DIFFERENCE OPTION, MIXELM=0) 
 = 0.1349    (WHEN MIN. R.F.=1)  AT K=   3, I=   2, J=  31


 TOTAL NUMBER OF POINT SOURCES/SINKS PRESENT IN THE FLOW MODEL =   240

 MAXIMUM STEPSIZE WHICH MEETS STABILITY CRITERION OF THE SINK & SOURCE TERM
 = 0.1000E+31(WHEN MIN. R.F.=1)  AT K=   0, I=   0, J=   0

 MAXIMUM STEPSIZE WHICH MEETS STABILITY CRITERION OF THE DISPERSION TERM
 = 0.7295E-02(WHEN MIN. R.F.=1)  AT K=   3, I=   2, J=  30
     1 CALLS TO GCG PACKAGE FOR TRANSPORT TIME STEP   8 IN FLOW TIME STEP   8 STRESS PERIOD   2
    19 TOTAL ITERATIONS
  MAXIMUM CONCENTRATION CHANGES FOR EACH ITERATION:
  MAX. CHANGE LAYER,ROW,COL MAX. CHANGE LAYER,ROW,COL MAX. CHANGE LAYER,ROW,COL MAX. CHANGE LAYER,ROW,COL MAX. CHANGE LAYER,ROW,COL
 ------------------------------------------------------------------------------------------------------------------------------------
   0.6928E-02 ( 11,  1, 46)  0.1876E-02 ( 11,  1, 46)  0.7651E-03 (  7,  1, 40)  0.3833E-03 (  7,  1, 40)  0.2055E-03 (  6,  1, 40)
   0.1243E-03 (  3,  1, 31)  0.7531E-04 (  4,  2, 31)  0.4685E-04 (  4,  2, 32)  0.3070E-04 (  3,  2, 32)  0.1587E-04 (  4,  3, 32)
   0.9683E-05 (  4,  3, 33)  0.5293E-05 (  3,  3, 33)  0.2917E-05 (  4,  3, 31)  0.1715E-05 (  3,  3, 31)  0.8468E-06 (  4,  1, 33)
   0.4390E-06 (  7,  1, 42)  0.2731E-06 (  4,  1, 34)  0.1503E-06 (  4,  1, 35)  0.7962E-07 (  4,  3, 36)
0WARNING: NUMERICAL OSCILLATION ENCOUNTERED
 ONE OR MORE CELL CONCENTRATIONS LESS THAN CRHOREF
 SMALLEST DENSITY =  0.100E+04
 AT CELL (I,J,K) = (   2,  64,  21)



                                          ================================================
                                                         FROM TIME =   9.0000     TO   10.0000    

 
 SOLVING FOR HEAD 
 FLOW MODEL IS TRANSIENT
 FLOW MODEL CONTAINS CONSTANT-HEAD CELLS


 MAXIMUM STEPSIZE DURING WHICH ANY PARTICLE CANNOT MOVE MORE THAN ONE CELL
 = 0.1702    (WHEN MIN. R.F.=1)  AT K=   3, I=   2, J=  30

 MAXIMUM STEPSIZE WHICH MEETS STABILITY CRITERION OF THE ADVECTION TERM
 (FOR PURE FINITE-DIFFERENCE OPTION, MIXELM=0) 
 = 0.1349    (WHEN MIN. R.F.=1)  AT K=   3, I=   2, J=  31


 TOTAL NUMBER OF POINT SOURCES/SINKS PRESENT IN THE FLOW MODEL =   240

 MAXIMUM STEPSIZE WHICH MEETS STABILITY CRITERION OF THE SINK & SOURCE TERM
 = 0.1000E+31(WHEN MIN. R.F.=1)  AT K=   0, I=   0, J=   0

 MAXIMUM STEPSIZE WHICH MEETS STABILITY CRITERION OF THE DISPERSION TERM
 = 0.7295E-02(WHEN MIN. R.F.=1)  AT K=   3, I=   2, J=  30


     1 CALLS TO GCG PACKAGE FOR TRANSPORT TIME STEP   1 IN FLOW TIME STEP   9 STRESS PERIOD   2
    20 TOTAL ITERATIONS

 NO OUTPUT CONTROL FOR STRESS PERIOD    2   TIME STEP   9
0WARNING: NUMERICAL OSCILLATION ENCOUNTERED
 ONE OR MORE CELL CONCENTRATIONS LESS THAN CRHOREF
 SMALLEST DENSITY =  0.100E+04
 AT CELL (I,J,K) = (   2,  64,  21)

 
 SOLVING FOR HEAD 
 FLOW MODEL IS TRANSIENT
 FLOW MODEL CONTAINS CONSTANT-HEAD CELLS


 MAXIMUM STEPSIZE DURING WHICH ANY PARTICLE CANNOT MOVE MORE THAN ONE CELL
 = 0.1702    (WHEN MIN. R.F.=1)  AT K=   3, I=   2, J=  30

 MAXIMUM STEPSIZE WHICH MEETS STABILITY CRITERION OF THE ADVECTION TERM
 (FOR PURE FINITE-DIFFERENCE OPTION, MIXELM=0) 
 = 0.1349    (WHEN MIN. R.F.=1)  AT K=   3, I=   2, J=  31


 TOTAL NUMBER OF POINT SOURCES/SINKS PRESENT IN THE FLOW MODEL =   240

 MAXIMUM STEPSIZE WHICH MEETS STABILITY CRITERION OF THE SINK & SOURCE TERM
 = 0.1000E+31(WHEN MIN. R.F.=1)  AT K=   0, I=   0, J=   0

 MAXIMUM STEPSIZE WHICH MEETS STABILITY CRITERION OF THE DISPERSION TERM
 = 0.7295E-02(WHEN MIN. R.F.=1)  AT K=   3, I=   2, J=  30
     1 CALLS TO GCG PACKAGE FOR TRANSPORT TIME STEP   2 IN FLOW TIME STEP   9 STRESS PERIOD   2
    20 TOTAL ITERATIONS
0WARNING: NUMERICAL OSCILLATION ENCOUNTERED
 ONE OR MORE CELL CONCENTRATIONS LESS THAN CRHOREF
 SMALLEST DENSITY =  0.100E+04
 AT CELL (I,J,K) = (   2,  64,  21)

 
 SOLVING FOR HEAD 
 FLOW MODEL IS TRANSIENT
 FLOW MODEL CONTAINS CONSTANT-HEAD CELLS


 MAXIMUM STEPSIZE DURING WHICH ANY PARTICLE CANNOT MOVE MORE THAN ONE CELL
 = 0.1702    (WHEN MIN. R.F.=1)  AT K=   3, I=   2, J=  30

 MAXIMUM STEPSIZE WHICH MEETS STABILITY CRITERION OF THE ADVECTION TERM
 (FOR PURE FINITE-DIFFERENCE OPTION, MIXELM=0) 
 = 0.1349    (WHEN MIN. R.F.=1)  AT K=   3, I=   2, J=  31


 TOTAL NUMBER OF POINT SOURCES/SINKS PRESENT IN THE FLOW MODEL =   240

 MAXIMUM STEPSIZE WHICH MEETS STABILITY CRITERION OF THE SINK & SOURCE TERM
 = 0.1000E+31(WHEN MIN. R.F.=1)  AT K=   0, I=   0, J=   0

 MAXIMUM STEPSIZE WHICH MEETS STABILITY CRITERION OF THE DISPERSION TERM
 = 0.7295E-02(WHEN MIN. R.F.=1)  AT K=   3, I=   2, J=  30
     1 CALLS TO GCG PACKAGE FOR TRANSPORT TIME STEP   3 IN FLOW TIME STEP   9 STRESS PERIOD   2
    20 TOTAL ITERATIONS
0WARNING: NUMERICAL OSCILLATION ENCOUNTERED
 ONE OR MORE CELL CONCENTRATIONS LESS THAN CRHOREF
 SMALLEST DENSITY =  0.100E+04
 AT CELL (I,J,K) = (   2,  64,  21)

 
 SOLVING FOR HEAD 
 FLOW MODEL IS TRANSIENT
 FLOW MODEL CONTAINS CONSTANT-HEAD CELLS


 MAXIMUM STEPSIZE DURING WHICH ANY PARTICLE CANNOT MOVE MORE THAN ONE CELL
 = 0.1702    (WHEN MIN. R.F.=1)  AT K=   3, I=   2, J=  30

 MAXIMUM STEPSIZE WHICH MEETS STABILITY CRITERION OF THE ADVECTION TERM
 (FOR PURE FINITE-DIFFERENCE OPTION, MIXELM=0) 
 = 0.1349    (WHEN MIN. R.F.=1)  AT K=   3, I=   2, J=  31


 TOTAL NUMBER OF POINT SOURCES/SINKS PRESENT IN THE FLOW MODEL =   240

 MAXIMUM STEPSIZE WHICH MEETS STABILITY CRITERION OF THE SINK & SOURCE TERM
 = 0.1000E+31(WHEN MIN. R.F.=1)  AT K=   0, I=   0, J=   0

 MAXIMUM STEPSIZE WHICH MEETS STABILITY CRITERION OF THE DISPERSION TERM
 = 0.7295E-02(WHEN MIN. R.F.=1)  AT K=   3, I=   2, J=  30
     1 CALLS TO GCG PACKAGE FOR TRANSPORT TIME STEP   4 IN FLOW TIME STEP   9 STRESS PERIOD   2
    20 TOTAL ITERATIONS
0WARNING: NUMERICAL OSCILLATION ENCOUNTERED
 ONE OR MORE CELL CONCENTRATIONS LESS THAN CRHOREF
 SMALLEST DENSITY =  0.100E+04
 AT CELL (I,J,K) = (   2,  64,  21)

 
 SOLVING FOR HEAD 
 FLOW MODEL IS TRANSIENT
 FLOW MODEL CONTAINS CONSTANT-HEAD CELLS


 MAXIMUM STEPSIZE DURING WHICH ANY PARTICLE CANNOT MOVE MORE THAN ONE CELL
 = 0.1702    (WHEN MIN. R.F.=1)  AT K=   3, I=   2, J=  30

 MAXIMUM STEPSIZE WHICH MEETS STABILITY CRITERION OF THE ADVECTION TERM
 (FOR PURE FINITE-DIFFERENCE OPTION, MIXELM=0) 
 = 0.1349    (WHEN MIN. R.F.=1)  AT K=   3, I=   2, J=  31


 TOTAL NUMBER OF POINT SOURCES/SINKS PRESENT IN THE FLOW MODEL =   240

 MAXIMUM STEPSIZE WHICH MEETS STABILITY CRITERION OF THE SINK & SOURCE TERM
 = 0.1000E+31(WHEN MIN. R.F.=1)  AT K=   0, I=   0, J=   0

 MAXIMUM STEPSIZE WHICH MEETS STABILITY CRITERION OF THE DISPERSION TERM
 = 0.7295E-02(WHEN MIN. R.F.=1)  AT K=   3, I=   2, J=  30
     1 CALLS TO GCG PACKAGE FOR TRANSPORT TIME STEP   5 IN FLOW TIME STEP   9 STRESS PERIOD   2
    20 TOTAL ITERATIONS
0WARNING: NUMERICAL OSCILLATION ENCOUNTERED
 ONE OR MORE CELL CONCENTRATIONS LESS THAN CRHOREF
 SMALLEST DENSITY =  0.100E+04
 AT CELL (I,J,K) = (   2,  65,  21)

 
 SOLVING FOR HEAD 
 FLOW MODEL IS TRANSIENT
 FLOW MODEL CONTAINS CONSTANT-HEAD CELLS


 MAXIMUM STEPSIZE DURING WHICH ANY PARTICLE CANNOT MOVE MORE THAN ONE CELL
 = 0.1702    (WHEN MIN. R.F.=1)  AT K=   3, I=   2, J=  30

 MAXIMUM STEPSIZE WHICH MEETS STABILITY CRITERION OF THE ADVECTION TERM
 (FOR PURE FINITE-DIFFERENCE OPTION, MIXELM=0) 
 = 0.1349    (WHEN MIN. R.F.=1)  AT K=   3, I=   2, J=  31


 TOTAL NUMBER OF POINT SOURCES/SINKS PRESENT IN THE FLOW MODEL =   240

 MAXIMUM STEPSIZE WHICH MEETS STABILITY CRITERION OF THE SINK & SOURCE TERM
 = 0.1000E+31(WHEN MIN. R.F.=1)  AT K=   0, I=   0, J=   0

 MAXIMUM STEPSIZE WHICH MEETS STABILITY CRITERION OF THE DISPERSION TERM
 = 0.7295E-02(WHEN MIN. R.F.=1)  AT K=   3, I=   2, J=  30
     1 CALLS TO GCG PACKAGE FOR TRANSPORT TIME STEP   6 IN FLOW TIME STEP   9 STRESS PERIOD   2
    20 TOTAL ITERATIONS
0WARNING: NUMERICAL OSCILLATION ENCOUNTERED
 ONE OR MORE CELL CONCENTRATIONS LESS THAN CRHOREF
 SMALLEST DENSITY =  0.100E+04
 AT CELL (I,J,K) = (   2,  65,  21)

 
 SOLVING FOR HEAD 
 FLOW MODEL IS TRANSIENT
 FLOW MODEL CONTAINS CONSTANT-HEAD CELLS


 MAXIMUM STEPSIZE DURING WHICH ANY PARTICLE CANNOT MOVE MORE THAN ONE CELL
 = 0.1702    (WHEN MIN. R.F.=1)  AT K=   3, I=   2, J=  30

 MAXIMUM STEPSIZE WHICH MEETS STABILITY CRITERION OF THE ADVECTION TERM
 (FOR PURE FINITE-DIFFERENCE OPTION, MIXELM=0) 
 = 0.1349    (WHEN MIN. R.F.=1)  AT K=   3, I=   2, J=  31


 TOTAL NUMBER OF POINT SOURCES/SINKS PRESENT IN THE FLOW MODEL =   240

 MAXIMUM STEPSIZE WHICH MEETS STABILITY CRITERION OF THE SINK & SOURCE TERM
 = 0.1000E+31(WHEN MIN. R.F.=1)  AT K=   0, I=   0, J=   0

 MAXIMUM STEPSIZE WHICH MEETS STABILITY CRITERION OF THE DISPERSION TERM
 = 0.7295E-02(WHEN MIN. R.F.=1)  AT K=   3, I=   2, J=  30
     1 CALLS TO GCG PACKAGE FOR TRANSPORT TIME STEP   7 IN FLOW TIME STEP   9 STRESS PERIOD   2
    20 TOTAL ITERATIONS
0WARNING: NUMERICAL OSCILLATION ENCOUNTERED
 ONE OR MORE CELL CONCENTRATIONS LESS THAN CRHOREF
 SMALLEST DENSITY =  0.100E+04
 AT CELL (I,J,K) = (   2,  65,  21)

 
 SOLVING FOR HEAD 
 FLOW MODEL IS TRANSIENT
 FLOW MODEL CONTAINS CONSTANT-HEAD CELLS


 MAXIMUM STEPSIZE DURING WHICH ANY PARTICLE CANNOT MOVE MORE THAN ONE CELL
 = 0.1702    (WHEN MIN. R.F.=1)  AT K=   3, I=   2, J=  30

 MAXIMUM STEPSIZE WHICH MEETS STABILITY CRITERION OF THE ADVECTION TERM
 (FOR PURE FINITE-DIFFERENCE OPTION, MIXELM=0) 
 = 0.1349    (WHEN MIN. R.F.=1)  AT K=   3, I=   2, J=  31


 TOTAL NUMBER OF POINT SOURCES/SINKS PRESENT IN THE FLOW MODEL =   240

 MAXIMUM STEPSIZE WHICH MEETS STABILITY CRITERION OF THE SINK & SOURCE TERM
 = 0.1000E+31(WHEN MIN. R.F.=1)  AT K=   0, I=   0, J=   0

 MAXIMUM STEPSIZE WHICH MEETS STABILITY CRITERION OF THE DISPERSION TERM
 = 0.7295E-02(WHEN MIN. R.F.=1)  AT K=   3, I=   2, J=  30
     1 CALLS TO GCG PACKAGE FOR TRANSPORT TIME STEP   8 IN FLOW TIME STEP   9 STRESS PERIOD   2
    19 TOTAL ITERATIONS
  MAXIMUM CONCENTRATION CHANGES FOR EACH ITERATION:
  MAX. CHANGE LAYER,ROW,COL MAX. CHANGE LAYER,ROW,COL MAX. CHANGE LAYER,ROW,COL MAX. CHANGE LAYER,ROW,COL MAX. CHANGE LAYER,ROW,COL
 ------------------------------------------------------------------------------------------------------------------------------------
   0.6102E-02 ( 11,  1, 46)  0.1598E-02 (  6,  1, 51)  0.6165E-03 (  7,  1, 40)  0.3088E-03 (  7,  1, 40)  0.1742E-03 (  6,  1, 40)
   0.1037E-03 (  3,  1, 31)  0.6308E-04 (  4,  2, 31)  0.3958E-04 (  3,  2, 31)  0.2580E-04 (  3,  2, 32)  0.1351E-04 (  4,  3, 32)
   0.8107E-05 (  4,  3, 33)  0.4457E-05 (  3,  3, 33)  0.2475E-05 (  4,  3, 31)  0.1452E-05 (  3,  3, 31)  0.7138E-06 (  4,  1, 33)
   0.3499E-06 (  7,  1, 42)  0.2244E-06 (  4,  1, 34)  0.1226E-06 (  4,  1, 35)  0.6580E-07 (  4,  3, 36)
0WARNING: NUMERICAL OSCILLATION ENCOUNTERED
 ONE OR MORE CELL CONCENTRATIONS LESS THAN CRHOREF
 SMALLEST DENSITY =  0.100E+04
 AT CELL (I,J,K) = (   2,  65,  21)



                                          ================================================
                                                         FROM TIME =  10.0000     TO    11.000    

 
 SOLVING FOR HEAD 
 FLOW MODEL IS TRANSIENT
 FLOW MODEL CONTAINS CONSTANT-HEAD CELLS


 MAXIMUM STEPSIZE DURING WHICH ANY PARTICLE CANNOT MOVE MORE THAN ONE CELL
 = 0.1702    (WHEN MIN. R.F.=1)  AT K=   3, I=   2, J=  30

 MAXIMUM STEPSIZE WHICH MEETS STABILITY CRITERION OF THE ADVECTION TERM
 (FOR PURE FINITE-DIFFERENCE OPTION, MIXELM=0) 
 = 0.1349    (WHEN MIN. R.F.=1)  AT K=   3, I=   2, J=  31


 TOTAL NUMBER OF POINT SOURCES/SINKS PRESENT IN THE FLOW MODEL =   240

 MAXIMUM STEPSIZE WHICH MEETS STABILITY CRITERION OF THE SINK & SOURCE TERM
 = 0.1000E+31(WHEN MIN. R.F.=1)  AT K=   0, I=   0, J=   0

 MAXIMUM STEPSIZE WHICH MEETS STABILITY CRITERION OF THE DISPERSION TERM
 = 0.7295E-02(WHEN MIN. R.F.=1)  AT K=   3, I=   2, J=  30


     1 CALLS TO GCG PACKAGE FOR TRANSPORT TIME STEP   1 IN FLOW TIME STEP  10 STRESS PERIOD   2
    20 TOTAL ITERATIONS

 NO OUTPUT CONTROL FOR STRESS PERIOD    2   TIME STEP  10
0WARNING: NUMERICAL OSCILLATION ENCOUNTERED
 ONE OR MORE CELL CONCENTRATIONS LESS THAN CRHOREF
 SMALLEST DENSITY =  0.100E+04
 AT CELL (I,J,K) = (   2,  65,  21)

 
 SOLVING FOR HEAD 
 FLOW MODEL IS TRANSIENT
 FLOW MODEL CONTAINS CONSTANT-HEAD CELLS


 MAXIMUM STEPSIZE DURING WHICH ANY PARTICLE CANNOT MOVE MORE THAN ONE CELL
 = 0.1702    (WHEN MIN. R.F.=1)  AT K=   3, I=   2, J=  30

 MAXIMUM STEPSIZE WHICH MEETS STABILITY CRITERION OF THE ADVECTION TERM
 (FOR PURE FINITE-DIFFERENCE OPTION, MIXELM=0) 
 = 0.1349    (WHEN MIN. R.F.=1)  AT K=   3, I=   2, J=  31


 TOTAL NUMBER OF POINT SOURCES/SINKS PRESENT IN THE FLOW MODEL =   240

 MAXIMUM STEPSIZE WHICH MEETS STABILITY CRITERION OF THE SINK & SOURCE TERM
 = 0.1000E+31(WHEN MIN. R.F.=1)  AT K=   0, I=   0, J=   0

 MAXIMUM STEPSIZE WHICH MEETS STABILITY CRITERION OF THE DISPERSION TERM
 = 0.7295E-02(WHEN MIN. R.F.=1)  AT K=   3, I=   2, J=  30
     1 CALLS TO GCG PACKAGE FOR TRANSPORT TIME STEP   2 IN FLOW TIME STEP  10 STRESS PERIOD   2
    20 TOTAL ITERATIONS
0WARNING: NUMERICAL OSCILLATION ENCOUNTERED
 ONE OR MORE CELL CONCENTRATIONS LESS THAN CRHOREF
 SMALLEST DENSITY =  0.100E+04
 AT CELL (I,J,K) = (   2,  65,  21)

 
 SOLVING FOR HEAD 
 FLOW MODEL IS TRANSIENT
 FLOW MODEL CONTAINS CONSTANT-HEAD CELLS


 MAXIMUM STEPSIZE DURING WHICH ANY PARTICLE CANNOT MOVE MORE THAN ONE CELL
 = 0.1702    (WHEN MIN. R.F.=1)  AT K=   3, I=   2, J=  30

 MAXIMUM STEPSIZE WHICH MEETS STABILITY CRITERION OF THE ADVECTION TERM
 (FOR PURE FINITE-DIFFERENCE OPTION, MIXELM=0) 
 = 0.1349    (WHEN MIN. R.F.=1)  AT K=   3, I=   2, J=  31


 TOTAL NUMBER OF POINT SOURCES/SINKS PRESENT IN THE FLOW MODEL =   240

 MAXIMUM STEPSIZE WHICH MEETS STABILITY CRITERION OF THE SINK & SOURCE TERM
 = 0.1000E+31(WHEN MIN. R.F.=1)  AT K=   0, I=   0, J=   0

 MAXIMUM STEPSIZE WHICH MEETS STABILITY CRITERION OF THE DISPERSION TERM
 = 0.7295E-02(WHEN MIN. R.F.=1)  AT K=   3, I=   2, J=  30
     1 CALLS TO GCG PACKAGE FOR TRANSPORT TIME STEP   3 IN FLOW TIME STEP  10 STRESS PERIOD   2
    20 TOTAL ITERATIONS
0WARNING: NUMERICAL OSCILLATION ENCOUNTERED
 ONE OR MORE CELL CONCENTRATIONS LESS THAN CRHOREF
 SMALLEST DENSITY =  0.100E+04
 AT CELL (I,J,K) = (   2,  65,  21)

 
 SOLVING FOR HEAD 
 FLOW MODEL IS TRANSIENT
 FLOW MODEL CONTAINS CONSTANT-HEAD CELLS


 MAXIMUM STEPSIZE DURING WHICH ANY PARTICLE CANNOT MOVE MORE THAN ONE CELL
 = 0.1702    (WHEN MIN. R.F.=1)  AT K=   3, I=   2, J=  30

 MAXIMUM STEPSIZE WHICH MEETS STABILITY CRITERION OF THE ADVECTION TERM
 (FOR PURE FINITE-DIFFERENCE OPTION, MIXELM=0) 
 = 0.1349    (WHEN MIN. R.F.=1)  AT K=   3, I=   2, J=  31


 TOTAL NUMBER OF POINT SOURCES/SINKS PRESENT IN THE FLOW MODEL =   240

 MAXIMUM STEPSIZE WHICH MEETS STABILITY CRITERION OF THE SINK & SOURCE TERM
 = 0.1000E+31(WHEN MIN. R.F.=1)  AT K=   0, I=   0, J=   0

 MAXIMUM STEPSIZE WHICH MEETS STABILITY CRITERION OF THE DISPERSION TERM
 = 0.7295E-02(WHEN MIN. R.F.=1)  AT K=   3, I=   2, J=  30
     1 CALLS TO GCG PACKAGE FOR TRANSPORT TIME STEP   4 IN FLOW TIME STEP  10 STRESS PERIOD   2
    20 TOTAL ITERATIONS
0WARNING: NUMERICAL OSCILLATION ENCOUNTERED
 ONE OR MORE CELL CONCENTRATIONS LESS THAN CRHOREF
 SMALLEST DENSITY =  0.100E+04
 AT CELL (I,J,K) = (   2,  65,  21)

 
 SOLVING FOR HEAD 
 FLOW MODEL IS TRANSIENT
 FLOW MODEL CONTAINS CONSTANT-HEAD CELLS


 MAXIMUM STEPSIZE DURING WHICH ANY PARTICLE CANNOT MOVE MORE THAN ONE CELL
 = 0.1702    (WHEN MIN. R.F.=1)  AT K=   3, I=   2, J=  30

 MAXIMUM STEPSIZE WHICH MEETS STABILITY CRITERION OF THE ADVECTION TERM
 (FOR PURE FINITE-DIFFERENCE OPTION, MIXELM=0) 
 = 0.1349    (WHEN MIN. R.F.=1)  AT K=   3, I=   2, J=  31


 TOTAL NUMBER OF POINT SOURCES/SINKS PRESENT IN THE FLOW MODEL =   240

 MAXIMUM STEPSIZE WHICH MEETS STABILITY CRITERION OF THE SINK & SOURCE TERM
 = 0.1000E+31(WHEN MIN. R.F.=1)  AT K=   0, I=   0, J=   0

 MAXIMUM STEPSIZE WHICH MEETS STABILITY CRITERION OF THE DISPERSION TERM
 = 0.7295E-02(WHEN MIN. R.F.=1)  AT K=   3, I=   2, J=  30
     1 CALLS TO GCG PACKAGE FOR TRANSPORT TIME STEP   5 IN FLOW TIME STEP  10 STRESS PERIOD   2
    20 TOTAL ITERATIONS
0WARNING: NUMERICAL OSCILLATION ENCOUNTERED
 ONE OR MORE CELL CONCENTRATIONS LESS THAN CRHOREF
 SMALLEST DENSITY =  0.100E+04
 AT CELL (I,J,K) = (   2,  65,  21)

 
 SOLVING FOR HEAD 
 FLOW MODEL IS TRANSIENT
 FLOW MODEL CONTAINS CONSTANT-HEAD CELLS


 MAXIMUM STEPSIZE DURING WHICH ANY PARTICLE CANNOT MOVE MORE THAN ONE CELL
 = 0.1702    (WHEN MIN. R.F.=1)  AT K=   3, I=   2, J=  30

 MAXIMUM STEPSIZE WHICH MEETS STABILITY CRITERION OF THE ADVECTION TERM
 (FOR PURE FINITE-DIFFERENCE OPTION, MIXELM=0) 
 = 0.1349    (WHEN MIN. R.F.=1)  AT K=   3, I=   2, J=  31


 TOTAL NUMBER OF POINT SOURCES/SINKS PRESENT IN THE FLOW MODEL =   240

 MAXIMUM STEPSIZE WHICH MEETS STABILITY CRITERION OF THE SINK & SOURCE TERM
 = 0.1000E+31(WHEN MIN. R.F.=1)  AT K=   0, I=   0, J=   0

 MAXIMUM STEPSIZE WHICH MEETS STABILITY CRITERION OF THE DISPERSION TERM
 = 0.7295E-02(WHEN MIN. R.F.=1)  AT K=   3, I=   2, J=  30
     1 CALLS TO GCG PACKAGE FOR TRANSPORT TIME STEP   6 IN FLOW TIME STEP  10 STRESS PERIOD   2
    20 TOTAL ITERATIONS
0WARNING: NUMERICAL OSCILLATION ENCOUNTERED
 ONE OR MORE CELL CONCENTRATIONS LESS THAN CRHOREF
 SMALLEST DENSITY =  0.100E+04
 AT CELL (I,J,K) = (   2,  65,  21)

 
 SOLVING FOR HEAD 
 FLOW MODEL IS TRANSIENT
 FLOW MODEL CONTAINS CONSTANT-HEAD CELLS


 MAXIMUM STEPSIZE DURING WHICH ANY PARTICLE CANNOT MOVE MORE THAN ONE CELL
 = 0.1702    (WHEN MIN. R.F.=1)  AT K=   3, I=   2, J=  30

 MAXIMUM STEPSIZE WHICH MEETS STABILITY CRITERION OF THE ADVECTION TERM
 (FOR PURE FINITE-DIFFERENCE OPTION, MIXELM=0) 
 = 0.1349    (WHEN MIN. R.F.=1)  AT K=   3, I=   2, J=  31


 TOTAL NUMBER OF POINT SOURCES/SINKS PRESENT IN THE FLOW MODEL =   240

 MAXIMUM STEPSIZE WHICH MEETS STABILITY CRITERION OF THE SINK & SOURCE TERM
 = 0.1000E+31(WHEN MIN. R.F.=1)  AT K=   0, I=   0, J=   0

 MAXIMUM STEPSIZE WHICH MEETS STABILITY CRITERION OF THE DISPERSION TERM
 = 0.7295E-02(WHEN MIN. R.F.=1)  AT K=   3, I=   2, J=  30
     1 CALLS TO GCG PACKAGE FOR TRANSPORT TIME STEP   7 IN FLOW TIME STEP  10 STRESS PERIOD   2
    20 TOTAL ITERATIONS
0WARNING: NUMERICAL OSCILLATION ENCOUNTERED
 ONE OR MORE CELL CONCENTRATIONS LESS THAN CRHOREF
 SMALLEST DENSITY =  0.100E+04
 AT CELL (I,J,K) = (   2,  65,  21)

 
 SOLVING FOR HEAD 
 FLOW MODEL IS TRANSIENT
 FLOW MODEL CONTAINS CONSTANT-HEAD CELLS


 MAXIMUM STEPSIZE DURING WHICH ANY PARTICLE CANNOT MOVE MORE THAN ONE CELL
 = 0.1702    (WHEN MIN. R.F.=1)  AT K=   3, I=   2, J=  30

 MAXIMUM STEPSIZE WHICH MEETS STABILITY CRITERION OF THE ADVECTION TERM
 (FOR PURE FINITE-DIFFERENCE OPTION, MIXELM=0) 
 = 0.1349    (WHEN MIN. R.F.=1)  AT K=   3, I=   2, J=  31


 TOTAL NUMBER OF POINT SOURCES/SINKS PRESENT IN THE FLOW MODEL =   240

 MAXIMUM STEPSIZE WHICH MEETS STABILITY CRITERION OF THE SINK & SOURCE TERM
 = 0.1000E+31(WHEN MIN. R.F.=1)  AT K=   0, I=   0, J=   0

 MAXIMUM STEPSIZE WHICH MEETS STABILITY CRITERION OF THE DISPERSION TERM
 = 0.7295E-02(WHEN MIN. R.F.=1)  AT K=   3, I=   2, J=  30
     1 CALLS TO GCG PACKAGE FOR TRANSPORT TIME STEP   8 IN FLOW TIME STEP  10 STRESS PERIOD   2
    19 TOTAL ITERATIONS
  MAXIMUM CONCENTRATION CHANGES FOR EACH ITERATION:
  MAX. CHANGE LAYER,ROW,COL MAX. CHANGE LAYER,ROW,COL MAX. CHANGE LAYER,ROW,COL MAX. CHANGE LAYER,ROW,COL MAX. CHANGE LAYER,ROW,COL
 ------------------------------------------------------------------------------------------------------------------------------------
   0.5353E-02 ( 11,  1, 46)  0.1404E-02 (  6,  1, 51)  0.5069E-03 (  7,  1, 40)  0.2544E-03 (  6,  1, 40)  0.1489E-03 (  6,  1, 40)
   0.8775E-04 (  3,  1, 31)  0.5382E-04 (  4,  2, 31)  0.3434E-04 (  3,  2, 29)  0.2207E-04 (  3,  2, 32)  0.1173E-04 (  3,  2, 29)
   0.6885E-05 (  4,  3, 33)  0.3800E-05 (  3,  3, 33)  0.2124E-05 (  4,  3, 31)  0.1243E-05 (  3,  3, 31)  0.6114E-06 (  4,  1, 33)
   0.2911E-06 (  3,  1, 34)  0.1889E-06 (  4,  1, 34)  0.1027E-06 (  4,  1, 35)  0.5585E-07 (  4,  3, 36)
0WARNING: NUMERICAL OSCILLATION ENCOUNTERED
 ONE OR MORE CELL CONCENTRATIONS LESS THAN CRHOREF
 SMALLEST DENSITY =  0.100E+04
 AT CELL (I,J,K) = (   2,  53,  25)



                                          ================================================
                                                         FROM TIME =   11.000     TO    12.000    

 
 SOLVING FOR HEAD 
 FLOW MODEL IS TRANSIENT
 FLOW MODEL CONTAINS CONSTANT-HEAD CELLS


 MAXIMUM STEPSIZE DURING WHICH ANY PARTICLE CANNOT MOVE MORE THAN ONE CELL
 = 0.1702    (WHEN MIN. R.F.=1)  AT K=   3, I=   2, J=  30

 MAXIMUM STEPSIZE WHICH MEETS STABILITY CRITERION OF THE ADVECTION TERM
 (FOR PURE FINITE-DIFFERENCE OPTION, MIXELM=0) 
 = 0.1349    (WHEN MIN. R.F.=1)  AT K=   3, I=   2, J=  31


 TOTAL NUMBER OF POINT SOURCES/SINKS PRESENT IN THE FLOW MODEL =   240

 MAXIMUM STEPSIZE WHICH MEETS STABILITY CRITERION OF THE SINK & SOURCE TERM
 = 0.1000E+31(WHEN MIN. R.F.=1)  AT K=   0, I=   0, J=   0

 MAXIMUM STEPSIZE WHICH MEETS STABILITY CRITERION OF THE DISPERSION TERM
 = 0.7295E-02(WHEN MIN. R.F.=1)  AT K=   3, I=   2, J=  30


     1 CALLS TO GCG PACKAGE FOR TRANSPORT TIME STEP   1 IN FLOW TIME STEP  11 STRESS PERIOD   2
    20 TOTAL ITERATIONS

 NO OUTPUT CONTROL FOR STRESS PERIOD    2   TIME STEP  11
0WARNING: NUMERICAL OSCILLATION ENCOUNTERED
 ONE OR MORE CELL CONCENTRATIONS LESS THAN CRHOREF
 SMALLEST DENSITY =  0.100E+04
 AT CELL (I,J,K) = (   2,  53,  25)

 
 SOLVING FOR HEAD 
 FLOW MODEL IS TRANSIENT
 FLOW MODEL CONTAINS CONSTANT-HEAD CELLS


 MAXIMUM STEPSIZE DURING WHICH ANY PARTICLE CANNOT MOVE MORE THAN ONE CELL
 = 0.1702    (WHEN MIN. R.F.=1)  AT K=   3, I=   2, J=  30

 MAXIMUM STEPSIZE WHICH MEETS STABILITY CRITERION OF THE ADVECTION TERM
 (FOR PURE FINITE-DIFFERENCE OPTION, MIXELM=0) 
 = 0.1349    (WHEN MIN. R.F.=1)  AT K=   3, I=   2, J=  31


 TOTAL NUMBER OF POINT SOURCES/SINKS PRESENT IN THE FLOW MODEL =   240

 MAXIMUM STEPSIZE WHICH MEETS STABILITY CRITERION OF THE SINK & SOURCE TERM
 = 0.1000E+31(WHEN MIN. R.F.=1)  AT K=   0, I=   0, J=   0

 MAXIMUM STEPSIZE WHICH MEETS STABILITY CRITERION OF THE DISPERSION TERM
 = 0.7295E-02(WHEN MIN. R.F.=1)  AT K=   3, I=   2, J=  30
     1 CALLS TO GCG PACKAGE FOR TRANSPORT TIME STEP   2 IN FLOW TIME STEP  11 STRESS PERIOD   2
    20 TOTAL ITERATIONS
0WARNING: NUMERICAL OSCILLATION ENCOUNTERED
 ONE OR MORE CELL CONCENTRATIONS LESS THAN CRHOREF
 SMALLEST DENSITY =  0.100E+04
 AT CELL (I,J,K) = (   2,  53,  25)

 
 SOLVING FOR HEAD 
 FLOW MODEL IS TRANSIENT
 FLOW MODEL CONTAINS CONSTANT-HEAD CELLS


 MAXIMUM STEPSIZE DURING WHICH ANY PARTICLE CANNOT MOVE MORE THAN ONE CELL
 = 0.1702    (WHEN MIN. R.F.=1)  AT K=   3, I=   2, J=  30

 MAXIMUM STEPSIZE WHICH MEETS STABILITY CRITERION OF THE ADVECTION TERM
 (FOR PURE FINITE-DIFFERENCE OPTION, MIXELM=0) 
 = 0.1349    (WHEN MIN. R.F.=1)  AT K=   3, I=   2, J=  31


 TOTAL NUMBER OF POINT SOURCES/SINKS PRESENT IN THE FLOW MODEL =   240

 MAXIMUM STEPSIZE WHICH MEETS STABILITY CRITERION OF THE SINK & SOURCE TERM
 = 0.1000E+31(WHEN MIN. R.F.=1)  AT K=   0, I=   0, J=   0

 MAXIMUM STEPSIZE WHICH MEETS STABILITY CRITERION OF THE DISPERSION TERM
 = 0.7295E-02(WHEN MIN. R.F.=1)  AT K=   3, I=   2, J=  30
     1 CALLS TO GCG PACKAGE FOR TRANSPORT TIME STEP   3 IN FLOW TIME STEP  11 STRESS PERIOD   2
    20 TOTAL ITERATIONS
0WARNING: NUMERICAL OSCILLATION ENCOUNTERED
 ONE OR MORE CELL CONCENTRATIONS LESS THAN CRHOREF
 SMALLEST DENSITY =  0.100E+04
 AT CELL (I,J,K) = (   2,  53,  25)

 
 SOLVING FOR HEAD 
 FLOW MODEL IS TRANSIENT
 FLOW MODEL CONTAINS CONSTANT-HEAD CELLS


 MAXIMUM STEPSIZE DURING WHICH ANY PARTICLE CANNOT MOVE MORE THAN ONE CELL
 = 0.1702    (WHEN MIN. R.F.=1)  AT K=   3, I=   2, J=  30

 MAXIMUM STEPSIZE WHICH MEETS STABILITY CRITERION OF THE ADVECTION TERM
 (FOR PURE FINITE-DIFFERENCE OPTION, MIXELM=0) 
 = 0.1349    (WHEN MIN. R.F.=1)  AT K=   3, I=   2, J=  31


 TOTAL NUMBER OF POINT SOURCES/SINKS PRESENT IN THE FLOW MODEL =   240

 MAXIMUM STEPSIZE WHICH MEETS STABILITY CRITERION OF THE SINK & SOURCE TERM
 = 0.1000E+31(WHEN MIN. R.F.=1)  AT K=   0, I=   0, J=   0

 MAXIMUM STEPSIZE WHICH MEETS STABILITY CRITERION OF THE DISPERSION TERM
 = 0.7295E-02(WHEN MIN. R.F.=1)  AT K=   3, I=   2, J=  30
     1 CALLS TO GCG PACKAGE FOR TRANSPORT TIME STEP   4 IN FLOW TIME STEP  11 STRESS PERIOD   2
    20 TOTAL ITERATIONS
0WARNING: NUMERICAL OSCILLATION ENCOUNTERED
 ONE OR MORE CELL CONCENTRATIONS LESS THAN CRHOREF
 SMALLEST DENSITY =  0.100E+04
 AT CELL (I,J,K) = (   2,  53,  25)

 
 SOLVING FOR HEAD 
 FLOW MODEL IS TRANSIENT
 FLOW MODEL CONTAINS CONSTANT-HEAD CELLS


 MAXIMUM STEPSIZE DURING WHICH ANY PARTICLE CANNOT MOVE MORE THAN ONE CELL
 = 0.1702    (WHEN MIN. R.F.=1)  AT K=   3, I=   2, J=  30

 MAXIMUM STEPSIZE WHICH MEETS STABILITY CRITERION OF THE ADVECTION TERM
 (FOR PURE FINITE-DIFFERENCE OPTION, MIXELM=0) 
 = 0.1349    (WHEN MIN. R.F.=1)  AT K=   3, I=   2, J=  31


 TOTAL NUMBER OF POINT SOURCES/SINKS PRESENT IN THE FLOW MODEL =   240

 MAXIMUM STEPSIZE WHICH MEETS STABILITY CRITERION OF THE SINK & SOURCE TERM
 = 0.1000E+31(WHEN MIN. R.F.=1)  AT K=   0, I=   0, J=   0

 MAXIMUM STEPSIZE WHICH MEETS STABILITY CRITERION OF THE DISPERSION TERM
 = 0.7295E-02(WHEN MIN. R.F.=1)  AT K=   3, I=   2, J=  30
     1 CALLS TO GCG PACKAGE FOR TRANSPORT TIME STEP   5 IN FLOW TIME STEP  11 STRESS PERIOD   2
    20 TOTAL ITERATIONS
0WARNING: NUMERICAL OSCILLATION ENCOUNTERED
 ONE OR MORE CELL CONCENTRATIONS LESS THAN CRHOREF
 SMALLEST DENSITY =  0.100E+04
 AT CELL (I,J,K) = (   2,  53,  25)

 
 SOLVING FOR HEAD 
 FLOW MODEL IS TRANSIENT
 FLOW MODEL CONTAINS CONSTANT-HEAD CELLS


 MAXIMUM STEPSIZE DURING WHICH ANY PARTICLE CANNOT MOVE MORE THAN ONE CELL
 = 0.1702    (WHEN MIN. R.F.=1)  AT K=   3, I=   2, J=  30

 MAXIMUM STEPSIZE WHICH MEETS STABILITY CRITERION OF THE ADVECTION TERM
 (FOR PURE FINITE-DIFFERENCE OPTION, MIXELM=0) 
 = 0.1349    (WHEN MIN. R.F.=1)  AT K=   3, I=   2, J=  31


 TOTAL NUMBER OF POINT SOURCES/SINKS PRESENT IN THE FLOW MODEL =   240

 MAXIMUM STEPSIZE WHICH MEETS STABILITY CRITERION OF THE SINK & SOURCE TERM
 = 0.1000E+31(WHEN MIN. R.F.=1)  AT K=   0, I=   0, J=   0

 MAXIMUM STEPSIZE WHICH MEETS STABILITY CRITERION OF THE DISPERSION TERM
 = 0.7295E-02(WHEN MIN. R.F.=1)  AT K=   3, I=   2, J=  30
     1 CALLS TO GCG PACKAGE FOR TRANSPORT TIME STEP   6 IN FLOW TIME STEP  11 STRESS PERIOD   2
    20 TOTAL ITERATIONS
0WARNING: NUMERICAL OSCILLATION ENCOUNTERED
 ONE OR MORE CELL CONCENTRATIONS LESS THAN CRHOREF
 SMALLEST DENSITY =  0.100E+04
 AT CELL (I,J,K) = (   2,  54,  25)

 
 SOLVING FOR HEAD 
 FLOW MODEL IS TRANSIENT
 FLOW MODEL CONTAINS CONSTANT-HEAD CELLS


 MAXIMUM STEPSIZE DURING WHICH ANY PARTICLE CANNOT MOVE MORE THAN ONE CELL
 = 0.1702    (WHEN MIN. R.F.=1)  AT K=   3, I=   2, J=  30

 MAXIMUM STEPSIZE WHICH MEETS STABILITY CRITERION OF THE ADVECTION TERM
 (FOR PURE FINITE-DIFFERENCE OPTION, MIXELM=0) 
 = 0.1349    (WHEN MIN. R.F.=1)  AT K=   3, I=   2, J=  31


 TOTAL NUMBER OF POINT SOURCES/SINKS PRESENT IN THE FLOW MODEL =   240

 MAXIMUM STEPSIZE WHICH MEETS STABILITY CRITERION OF THE SINK & SOURCE TERM
 = 0.1000E+31(WHEN MIN. R.F.=1)  AT K=   0, I=   0, J=   0

 MAXIMUM STEPSIZE WHICH MEETS STABILITY CRITERION OF THE DISPERSION TERM
 = 0.7295E-02(WHEN MIN. R.F.=1)  AT K=   3, I=   2, J=  30
     1 CALLS TO GCG PACKAGE FOR TRANSPORT TIME STEP   7 IN FLOW TIME STEP  11 STRESS PERIOD   2
    20 TOTAL ITERATIONS
0WARNING: NUMERICAL OSCILLATION ENCOUNTERED
 ONE OR MORE CELL CONCENTRATIONS LESS THAN CRHOREF
 SMALLEST DENSITY =  0.100E+04
 AT CELL (I,J,K) = (   2,  54,  25)

 
 SOLVING FOR HEAD 
 FLOW MODEL IS TRANSIENT
 FLOW MODEL CONTAINS CONSTANT-HEAD CELLS


 MAXIMUM STEPSIZE DURING WHICH ANY PARTICLE CANNOT MOVE MORE THAN ONE CELL
 = 0.1702    (WHEN MIN. R.F.=1)  AT K=   3, I=   2, J=  30

 MAXIMUM STEPSIZE WHICH MEETS STABILITY CRITERION OF THE ADVECTION TERM
 (FOR PURE FINITE-DIFFERENCE OPTION, MIXELM=0) 
 = 0.1349    (WHEN MIN. R.F.=1)  AT K=   3, I=   2, J=  31


 TOTAL NUMBER OF POINT SOURCES/SINKS PRESENT IN THE FLOW MODEL =   240

 MAXIMUM STEPSIZE WHICH MEETS STABILITY CRITERION OF THE SINK & SOURCE TERM
 = 0.1000E+31(WHEN MIN. R.F.=1)  AT K=   0, I=   0, J=   0

 MAXIMUM STEPSIZE WHICH MEETS STABILITY CRITERION OF THE DISPERSION TERM
 = 0.7295E-02(WHEN MIN. R.F.=1)  AT K=   3, I=   2, J=  30
     1 CALLS TO GCG PACKAGE FOR TRANSPORT TIME STEP   8 IN FLOW TIME STEP  11 STRESS PERIOD   2
    18 TOTAL ITERATIONS
  MAXIMUM CONCENTRATION CHANGES FOR EACH ITERATION:
  MAX. CHANGE LAYER,ROW,COL MAX. CHANGE LAYER,ROW,COL MAX. CHANGE LAYER,ROW,COL MAX. CHANGE LAYER,ROW,COL MAX. CHANGE LAYER,ROW,COL
 ------------------------------------------------------------------------------------------------------------------------------------
   0.4687E-02 ( 11,  1, 46)  0.1238E-02 (  6,  1, 51)  0.4240E-03 (  7,  1, 40)  0.2175E-03 (  6,  1, 40)  0.1285E-03 (  6,  1, 40)
   0.7526E-04 (  3,  1, 31)  0.4649E-04 (  4,  2, 31)  0.3007E-04 (  3,  2, 29)  0.1912E-04 (  3,  2, 32)  0.1028E-04 (  3,  2, 29)
   0.5924E-05 (  4,  3, 33)  0.3278E-05 (  3,  3, 33)  0.1845E-05 (  4,  3, 31)  0.1076E-05 (  3,  3, 31)  0.5300E-06 (  4,  1, 33)
   0.2480E-06 (  3,  1, 34)  0.1615E-06 (  4,  1, 34)  0.8778E-07 (  3,  3, 36)
0WARNING: NUMERICAL OSCILLATION ENCOUNTERED
 ONE OR MORE CELL CONCENTRATIONS LESS THAN CRHOREF
 SMALLEST DENSITY =  0.100E+04
 AT CELL (I,J,K) = (   2,  54,  25)



                                          ================================================
                                                         FROM TIME =   12.000     TO    13.000    

 
 SOLVING FOR HEAD 
 FLOW MODEL IS TRANSIENT
 FLOW MODEL CONTAINS CONSTANT-HEAD CELLS


 MAXIMUM STEPSIZE DURING WHICH ANY PARTICLE CANNOT MOVE MORE THAN ONE CELL
 = 0.1702    (WHEN MIN. R.F.=1)  AT K=   3, I=   2, J=  30

 MAXIMUM STEPSIZE WHICH MEETS STABILITY CRITERION OF THE ADVECTION TERM
 (FOR PURE FINITE-DIFFERENCE OPTION, MIXELM=0) 
 = 0.1349    (WHEN MIN. R.F.=1)  AT K=   3, I=   2, J=  31


 TOTAL NUMBER OF POINT SOURCES/SINKS PRESENT IN THE FLOW MODEL =   240

 MAXIMUM STEPSIZE WHICH MEETS STABILITY CRITERION OF THE SINK & SOURCE TERM
 = 0.1000E+31(WHEN MIN. R.F.=1)  AT K=   0, I=   0, J=   0

 MAXIMUM STEPSIZE WHICH MEETS STABILITY CRITERION OF THE DISPERSION TERM
 = 0.7295E-02(WHEN MIN. R.F.=1)  AT K=   3, I=   2, J=  30


     1 CALLS TO GCG PACKAGE FOR TRANSPORT TIME STEP   1 IN FLOW TIME STEP  12 STRESS PERIOD   2
    20 TOTAL ITERATIONS

 NO OUTPUT CONTROL FOR STRESS PERIOD    2   TIME STEP  12
0WARNING: NUMERICAL OSCILLATION ENCOUNTERED
 ONE OR MORE CELL CONCENTRATIONS LESS THAN CRHOREF
 SMALLEST DENSITY =  0.100E+04
 AT CELL (I,J,K) = (   2,  54,  25)

 
 SOLVING FOR HEAD 
 FLOW MODEL IS TRANSIENT
 FLOW MODEL CONTAINS CONSTANT-HEAD CELLS


 MAXIMUM STEPSIZE DURING WHICH ANY PARTICLE CANNOT MOVE MORE THAN ONE CELL
 = 0.1702    (WHEN MIN. R.F.=1)  AT K=   3, I=   2, J=  30

 MAXIMUM STEPSIZE WHICH MEETS STABILITY CRITERION OF THE ADVECTION TERM
 (FOR PURE FINITE-DIFFERENCE OPTION, MIXELM=0) 
 = 0.1349    (WHEN MIN. R.F.=1)  AT K=   3, I=   2, J=  31


 TOTAL NUMBER OF POINT SOURCES/SINKS PRESENT IN THE FLOW MODEL =   240

 MAXIMUM STEPSIZE WHICH MEETS STABILITY CRITERION OF THE SINK & SOURCE TERM
 = 0.1000E+31(WHEN MIN. R.F.=1)  AT K=   0, I=   0, J=   0

 MAXIMUM STEPSIZE WHICH MEETS STABILITY CRITERION OF THE DISPERSION TERM
 = 0.7295E-02(WHEN MIN. R.F.=1)  AT K=   3, I=   2, J=  30
     1 CALLS TO GCG PACKAGE FOR TRANSPORT TIME STEP   2 IN FLOW TIME STEP  12 STRESS PERIOD   2
    20 TOTAL ITERATIONS
0WARNING: NUMERICAL OSCILLATION ENCOUNTERED
 ONE OR MORE CELL CONCENTRATIONS LESS THAN CRHOREF
 SMALLEST DENSITY =  0.100E+04
 AT CELL (I,J,K) = (   2,  55,  25)

 
 SOLVING FOR HEAD 
 FLOW MODEL IS TRANSIENT
 FLOW MODEL CONTAINS CONSTANT-HEAD CELLS


 MAXIMUM STEPSIZE DURING WHICH ANY PARTICLE CANNOT MOVE MORE THAN ONE CELL
 = 0.1702    (WHEN MIN. R.F.=1)  AT K=   3, I=   2, J=  30

 MAXIMUM STEPSIZE WHICH MEETS STABILITY CRITERION OF THE ADVECTION TERM
 (FOR PURE FINITE-DIFFERENCE OPTION, MIXELM=0) 
 = 0.1349    (WHEN MIN. R.F.=1)  AT K=   3, I=   2, J=  31


 TOTAL NUMBER OF POINT SOURCES/SINKS PRESENT IN THE FLOW MODEL =   240

 MAXIMUM STEPSIZE WHICH MEETS STABILITY CRITERION OF THE SINK & SOURCE TERM
 = 0.1000E+31(WHEN MIN. R.F.=1)  AT K=   0, I=   0, J=   0

 MAXIMUM STEPSIZE WHICH MEETS STABILITY CRITERION OF THE DISPERSION TERM
 = 0.7295E-02(WHEN MIN. R.F.=1)  AT K=   3, I=   2, J=  30
     1 CALLS TO GCG PACKAGE FOR TRANSPORT TIME STEP   3 IN FLOW TIME STEP  12 STRESS PERIOD   2
    20 TOTAL ITERATIONS
0WARNING: NUMERICAL OSCILLATION ENCOUNTERED
 ONE OR MORE CELL CONCENTRATIONS LESS THAN CRHOREF
 SMALLEST DENSITY =  0.100E+04
 AT CELL (I,J,K) = (   2,  55,  25)

 
 SOLVING FOR HEAD 
 FLOW MODEL IS TRANSIENT
 FLOW MODEL CONTAINS CONSTANT-HEAD CELLS


 MAXIMUM STEPSIZE DURING WHICH ANY PARTICLE CANNOT MOVE MORE THAN ONE CELL
 = 0.1702    (WHEN MIN. R.F.=1)  AT K=   3, I=   2, J=  30

 MAXIMUM STEPSIZE WHICH MEETS STABILITY CRITERION OF THE ADVECTION TERM
 (FOR PURE FINITE-DIFFERENCE OPTION, MIXELM=0) 
 = 0.1349    (WHEN MIN. R.F.=1)  AT K=   3, I=   2, J=  31


 TOTAL NUMBER OF POINT SOURCES/SINKS PRESENT IN THE FLOW MODEL =   240

 MAXIMUM STEPSIZE WHICH MEETS STABILITY CRITERION OF THE SINK & SOURCE TERM
 = 0.1000E+31(WHEN MIN. R.F.=1)  AT K=   0, I=   0, J=   0

 MAXIMUM STEPSIZE WHICH MEETS STABILITY CRITERION OF THE DISPERSION TERM
 = 0.7295E-02(WHEN MIN. R.F.=1)  AT K=   3, I=   2, J=  30
     1 CALLS TO GCG PACKAGE FOR TRANSPORT TIME STEP   4 IN FLOW TIME STEP  12 STRESS PERIOD   2
    20 TOTAL ITERATIONS
0WARNING: NUMERICAL OSCILLATION ENCOUNTERED
 ONE OR MORE CELL CONCENTRATIONS LESS THAN CRHOREF
 SMALLEST DENSITY =  0.100E+04
 AT CELL (I,J,K) = (   2,  55,  25)

 
 SOLVING FOR HEAD 
 FLOW MODEL IS TRANSIENT
 FLOW MODEL CONTAINS CONSTANT-HEAD CELLS


 MAXIMUM STEPSIZE DURING WHICH ANY PARTICLE CANNOT MOVE MORE THAN ONE CELL
 = 0.1702    (WHEN MIN. R.F.=1)  AT K=   3, I=   2, J=  30

 MAXIMUM STEPSIZE WHICH MEETS STABILITY CRITERION OF THE ADVECTION TERM
 (FOR PURE FINITE-DIFFERENCE OPTION, MIXELM=0) 
 = 0.1349    (WHEN MIN. R.F.=1)  AT K=   3, I=   2, J=  31


 TOTAL NUMBER OF POINT SOURCES/SINKS PRESENT IN THE FLOW MODEL =   240

 MAXIMUM STEPSIZE WHICH MEETS STABILITY CRITERION OF THE SINK & SOURCE TERM
 = 0.1000E+31(WHEN MIN. R.F.=1)  AT K=   0, I=   0, J=   0

 MAXIMUM STEPSIZE WHICH MEETS STABILITY CRITERION OF THE DISPERSION TERM
 = 0.7295E-02(WHEN MIN. R.F.=1)  AT K=   3, I=   2, J=  30
     1 CALLS TO GCG PACKAGE FOR TRANSPORT TIME STEP   5 IN FLOW TIME STEP  12 STRESS PERIOD   2
    20 TOTAL ITERATIONS
0WARNING: NUMERICAL OSCILLATION ENCOUNTERED
 ONE OR MORE CELL CONCENTRATIONS LESS THAN CRHOREF
 SMALLEST DENSITY =  0.100E+04
 AT CELL (I,J,K) = (   2,  55,  25)

 
 SOLVING FOR HEAD 
 FLOW MODEL IS TRANSIENT
 FLOW MODEL CONTAINS CONSTANT-HEAD CELLS


 MAXIMUM STEPSIZE DURING WHICH ANY PARTICLE CANNOT MOVE MORE THAN ONE CELL
 = 0.1702    (WHEN MIN. R.F.=1)  AT K=   3, I=   2, J=  30

 MAXIMUM STEPSIZE WHICH MEETS STABILITY CRITERION OF THE ADVECTION TERM
 (FOR PURE FINITE-DIFFERENCE OPTION, MIXELM=0) 
 = 0.1349    (WHEN MIN. R.F.=1)  AT K=   3, I=   2, J=  31


 TOTAL NUMBER OF POINT SOURCES/SINKS PRESENT IN THE FLOW MODEL =   240

 MAXIMUM STEPSIZE WHICH MEETS STABILITY CRITERION OF THE SINK & SOURCE TERM
 = 0.1000E+31(WHEN MIN. R.F.=1)  AT K=   0, I=   0, J=   0

 MAXIMUM STEPSIZE WHICH MEETS STABILITY CRITERION OF THE DISPERSION TERM
 = 0.7295E-02(WHEN MIN. R.F.=1)  AT K=   3, I=   2, J=  30
     1 CALLS TO GCG PACKAGE FOR TRANSPORT TIME STEP   6 IN FLOW TIME STEP  12 STRESS PERIOD   2
    20 TOTAL ITERATIONS
0WARNING: NUMERICAL OSCILLATION ENCOUNTERED
 ONE OR MORE CELL CONCENTRATIONS LESS THAN CRHOREF
 SMALLEST DENSITY =  0.100E+04
 AT CELL (I,J,K) = (   2,  56,  25)

 
 SOLVING FOR HEAD 
 FLOW MODEL IS TRANSIENT
 FLOW MODEL CONTAINS CONSTANT-HEAD CELLS


 MAXIMUM STEPSIZE DURING WHICH ANY PARTICLE CANNOT MOVE MORE THAN ONE CELL
 = 0.1702    (WHEN MIN. R.F.=1)  AT K=   3, I=   2, J=  30

 MAXIMUM STEPSIZE WHICH MEETS STABILITY CRITERION OF THE ADVECTION TERM
 (FOR PURE FINITE-DIFFERENCE OPTION, MIXELM=0) 
 = 0.1349    (WHEN MIN. R.F.=1)  AT K=   3, I=   2, J=  31


 TOTAL NUMBER OF POINT SOURCES/SINKS PRESENT IN THE FLOW MODEL =   240

 MAXIMUM STEPSIZE WHICH MEETS STABILITY CRITERION OF THE SINK & SOURCE TERM
 = 0.1000E+31(WHEN MIN. R.F.=1)  AT K=   0, I=   0, J=   0

 MAXIMUM STEPSIZE WHICH MEETS STABILITY CRITERION OF THE DISPERSION TERM
 = 0.7295E-02(WHEN MIN. R.F.=1)  AT K=   3, I=   2, J=  30
     1 CALLS TO GCG PACKAGE FOR TRANSPORT TIME STEP   7 IN FLOW TIME STEP  12 STRESS PERIOD   2
    20 TOTAL ITERATIONS
0WARNING: NUMERICAL OSCILLATION ENCOUNTERED
 ONE OR MORE CELL CONCENTRATIONS LESS THAN CRHOREF
 SMALLEST DENSITY =  0.100E+04
 AT CELL (I,J,K) = (   2,  56,  25)

 
 SOLVING FOR HEAD 
 FLOW MODEL IS TRANSIENT
 FLOW MODEL CONTAINS CONSTANT-HEAD CELLS


 MAXIMUM STEPSIZE DURING WHICH ANY PARTICLE CANNOT MOVE MORE THAN ONE CELL
 = 0.1702    (WHEN MIN. R.F.=1)  AT K=   3, I=   2, J=  30

 MAXIMUM STEPSIZE WHICH MEETS STABILITY CRITERION OF THE ADVECTION TERM
 (FOR PURE FINITE-DIFFERENCE OPTION, MIXELM=0) 
 = 0.1349    (WHEN MIN. R.F.=1)  AT K=   3, I=   2, J=  31


 TOTAL NUMBER OF POINT SOURCES/SINKS PRESENT IN THE FLOW MODEL =   240

 MAXIMUM STEPSIZE WHICH MEETS STABILITY CRITERION OF THE SINK & SOURCE TERM
 = 0.1000E+31(WHEN MIN. R.F.=1)  AT K=   0, I=   0, J=   0

 MAXIMUM STEPSIZE WHICH MEETS STABILITY CRITERION OF THE DISPERSION TERM
 = 0.7295E-02(WHEN MIN. R.F.=1)  AT K=   3, I=   2, J=  30
     1 CALLS TO GCG PACKAGE FOR TRANSPORT TIME STEP   8 IN FLOW TIME STEP  12 STRESS PERIOD   2
    18 TOTAL ITERATIONS
  MAXIMUM CONCENTRATION CHANGES FOR EACH ITERATION:
  MAX. CHANGE LAYER,ROW,COL MAX. CHANGE LAYER,ROW,COL MAX. CHANGE LAYER,ROW,COL MAX. CHANGE LAYER,ROW,COL MAX. CHANGE LAYER,ROW,COL
 ------------------------------------------------------------------------------------------------------------------------------------
   0.4169E-02 ( 10,  1, 52)  0.1097E-02 (  6,  1, 51)  0.3681E-03 (  5,  2, 56)  0.1876E-03 (  6,  1, 40)  0.1117E-03 (  6,  1, 40)
   0.6553E-04 (  3,  2, 31)  0.4057E-04 (  4,  2, 31)  0.2653E-04 (  3,  2, 29)  0.1673E-04 (  3,  2, 32)  0.9083E-05 (  3,  2, 29)
   0.5152E-05 (  4,  3, 33)  0.2857E-05 (  3,  2, 31)  0.1618E-05 (  4,  3, 31)  0.9420E-06 (  3,  3, 31)  0.4641E-06 (  4,  1, 33)
   0.2140E-06 (  3,  1, 34)  0.1399E-06 (  4,  1, 34)  0.7632E-07 (  3,  3, 36)
0WARNING: NUMERICAL OSCILLATION ENCOUNTERED
 ONE OR MORE CELL CONCENTRATIONS LESS THAN CRHOREF
 SMALLEST DENSITY =  0.100E+04
 AT CELL (I,J,K) = (   2,  56,  25)



                                          ================================================
                                                         FROM TIME =   13.000     TO    14.000    

 
 SOLVING FOR HEAD 
 FLOW MODEL IS TRANSIENT
 FLOW MODEL CONTAINS CONSTANT-HEAD CELLS


 MAXIMUM STEPSIZE DURING WHICH ANY PARTICLE CANNOT MOVE MORE THAN ONE CELL
 = 0.1702    (WHEN MIN. R.F.=1)  AT K=   3, I=   2, J=  30

 MAXIMUM STEPSIZE WHICH MEETS STABILITY CRITERION OF THE ADVECTION TERM
 (FOR PURE FINITE-DIFFERENCE OPTION, MIXELM=0) 
 = 0.1349    (WHEN MIN. R.F.=1)  AT K=   3, I=   2, J=  31


 TOTAL NUMBER OF POINT SOURCES/SINKS PRESENT IN THE FLOW MODEL =   240

 MAXIMUM STEPSIZE WHICH MEETS STABILITY CRITERION OF THE SINK & SOURCE TERM
 = 0.1000E+31(WHEN MIN. R.F.=1)  AT K=   0, I=   0, J=   0

 MAXIMUM STEPSIZE WHICH MEETS STABILITY CRITERION OF THE DISPERSION TERM
 = 0.7295E-02(WHEN MIN. R.F.=1)  AT K=   3, I=   2, J=  30


     1 CALLS TO GCG PACKAGE FOR TRANSPORT TIME STEP   1 IN FLOW TIME STEP  13 STRESS PERIOD   2
    20 TOTAL ITERATIONS

 NO OUTPUT CONTROL FOR STRESS PERIOD    2   TIME STEP  13
0WARNING: NUMERICAL OSCILLATION ENCOUNTERED
 ONE OR MORE CELL CONCENTRATIONS LESS THAN CRHOREF
 SMALLEST DENSITY =  0.100E+04
 AT CELL (I,J,K) = (   2,  56,  25)

 
 SOLVING FOR HEAD 
 FLOW MODEL IS TRANSIENT
 FLOW MODEL CONTAINS CONSTANT-HEAD CELLS


 MAXIMUM STEPSIZE DURING WHICH ANY PARTICLE CANNOT MOVE MORE THAN ONE CELL
 = 0.1702    (WHEN MIN. R.F.=1)  AT K=   3, I=   2, J=  30

 MAXIMUM STEPSIZE WHICH MEETS STABILITY CRITERION OF THE ADVECTION TERM
 (FOR PURE FINITE-DIFFERENCE OPTION, MIXELM=0) 
 = 0.1349    (WHEN MIN. R.F.=1)  AT K=   3, I=   2, J=  31


 TOTAL NUMBER OF POINT SOURCES/SINKS PRESENT IN THE FLOW MODEL =   240

 MAXIMUM STEPSIZE WHICH MEETS STABILITY CRITERION OF THE SINK & SOURCE TERM
 = 0.1000E+31(WHEN MIN. R.F.=1)  AT K=   0, I=   0, J=   0

 MAXIMUM STEPSIZE WHICH MEETS STABILITY CRITERION OF THE DISPERSION TERM
 = 0.7295E-02(WHEN MIN. R.F.=1)  AT K=   3, I=   2, J=  30
     1 CALLS TO GCG PACKAGE FOR TRANSPORT TIME STEP   2 IN FLOW TIME STEP  13 STRESS PERIOD   2
    20 TOTAL ITERATIONS
0WARNING: NUMERICAL OSCILLATION ENCOUNTERED
 ONE OR MORE CELL CONCENTRATIONS LESS THAN CRHOREF
 SMALLEST DENSITY =  0.100E+04
 AT CELL (I,J,K) = (   2,  56,  25)

 
 SOLVING FOR HEAD 
 FLOW MODEL IS TRANSIENT
 FLOW MODEL CONTAINS CONSTANT-HEAD CELLS


 MAXIMUM STEPSIZE DURING WHICH ANY PARTICLE CANNOT MOVE MORE THAN ONE CELL
 = 0.1702    (WHEN MIN. R.F.=1)  AT K=   3, I=   2, J=  30

 MAXIMUM STEPSIZE WHICH MEETS STABILITY CRITERION OF THE ADVECTION TERM
 (FOR PURE FINITE-DIFFERENCE OPTION, MIXELM=0) 
 = 0.1349    (WHEN MIN. R.F.=1)  AT K=   3, I=   2, J=  31


 TOTAL NUMBER OF POINT SOURCES/SINKS PRESENT IN THE FLOW MODEL =   240

 MAXIMUM STEPSIZE WHICH MEETS STABILITY CRITERION OF THE SINK & SOURCE TERM
 = 0.1000E+31(WHEN MIN. R.F.=1)  AT K=   0, I=   0, J=   0

 MAXIMUM STEPSIZE WHICH MEETS STABILITY CRITERION OF THE DISPERSION TERM
 = 0.7295E-02(WHEN MIN. R.F.=1)  AT K=   3, I=   2, J=  30
     1 CALLS TO GCG PACKAGE FOR TRANSPORT TIME STEP   3 IN FLOW TIME STEP  13 STRESS PERIOD   2
    20 TOTAL ITERATIONS
0WARNING: NUMERICAL OSCILLATION ENCOUNTERED
 ONE OR MORE CELL CONCENTRATIONS LESS THAN CRHOREF
 SMALLEST DENSITY =  0.100E+04
 AT CELL (I,J,K) = (   2,  56,  25)

 
 SOLVING FOR HEAD 
 FLOW MODEL IS TRANSIENT
 FLOW MODEL CONTAINS CONSTANT-HEAD CELLS


 MAXIMUM STEPSIZE DURING WHICH ANY PARTICLE CANNOT MOVE MORE THAN ONE CELL
 = 0.1702    (WHEN MIN. R.F.=1)  AT K=   3, I=   2, J=  30

 MAXIMUM STEPSIZE WHICH MEETS STABILITY CRITERION OF THE ADVECTION TERM
 (FOR PURE FINITE-DIFFERENCE OPTION, MIXELM=0) 
 = 0.1349    (WHEN MIN. R.F.=1)  AT K=   3, I=   2, J=  31


 TOTAL NUMBER OF POINT SOURCES/SINKS PRESENT IN THE FLOW MODEL =   240

 MAXIMUM STEPSIZE WHICH MEETS STABILITY CRITERION OF THE SINK & SOURCE TERM
 = 0.1000E+31(WHEN MIN. R.F.=1)  AT K=   0, I=   0, J=   0

 MAXIMUM STEPSIZE WHICH MEETS STABILITY CRITERION OF THE DISPERSION TERM
 = 0.7295E-02(WHEN MIN. R.F.=1)  AT K=   3, I=   2, J=  30
     1 CALLS TO GCG PACKAGE FOR TRANSPORT TIME STEP   4 IN FLOW TIME STEP  13 STRESS PERIOD   2
    20 TOTAL ITERATIONS
0WARNING: NUMERICAL OSCILLATION ENCOUNTERED
 ONE OR MORE CELL CONCENTRATIONS LESS THAN CRHOREF
 SMALLEST DENSITY =  0.100E+04
 AT CELL (I,J,K) = (   2,  56,  25)

 
 SOLVING FOR HEAD 
 FLOW MODEL IS TRANSIENT
 FLOW MODEL CONTAINS CONSTANT-HEAD CELLS


 MAXIMUM STEPSIZE DURING WHICH ANY PARTICLE CANNOT MOVE MORE THAN ONE CELL
 = 0.1702    (WHEN MIN. R.F.=1)  AT K=   3, I=   2, J=  30

 MAXIMUM STEPSIZE WHICH MEETS STABILITY CRITERION OF THE ADVECTION TERM
 (FOR PURE FINITE-DIFFERENCE OPTION, MIXELM=0) 
 = 0.1349    (WHEN MIN. R.F.=1)  AT K=   3, I=   2, J=  31


 TOTAL NUMBER OF POINT SOURCES/SINKS PRESENT IN THE FLOW MODEL =   240

 MAXIMUM STEPSIZE WHICH MEETS STABILITY CRITERION OF THE SINK & SOURCE TERM
 = 0.1000E+31(WHEN MIN. R.F.=1)  AT K=   0, I=   0, J=   0

 MAXIMUM STEPSIZE WHICH MEETS STABILITY CRITERION OF THE DISPERSION TERM
 = 0.7295E-02(WHEN MIN. R.F.=1)  AT K=   3, I=   2, J=  30
     1 CALLS TO GCG PACKAGE FOR TRANSPORT TIME STEP   5 IN FLOW TIME STEP  13 STRESS PERIOD   2
    19 TOTAL ITERATIONS
0WARNING: NUMERICAL OSCILLATION ENCOUNTERED
 ONE OR MORE CELL CONCENTRATIONS LESS THAN CRHOREF
 SMALLEST DENSITY =  0.100E+04
 AT CELL (I,J,K) = (   2,  56,  25)

 
 SOLVING FOR HEAD 
 FLOW MODEL IS TRANSIENT
 FLOW MODEL CONTAINS CONSTANT-HEAD CELLS


 MAXIMUM STEPSIZE DURING WHICH ANY PARTICLE CANNOT MOVE MORE THAN ONE CELL
 = 0.1702    (WHEN MIN. R.F.=1)  AT K=   3, I=   2, J=  30

 MAXIMUM STEPSIZE WHICH MEETS STABILITY CRITERION OF THE ADVECTION TERM
 (FOR PURE FINITE-DIFFERENCE OPTION, MIXELM=0) 
 = 0.1349    (WHEN MIN. R.F.=1)  AT K=   3, I=   2, J=  31


 TOTAL NUMBER OF POINT SOURCES/SINKS PRESENT IN THE FLOW MODEL =   240

 MAXIMUM STEPSIZE WHICH MEETS STABILITY CRITERION OF THE SINK & SOURCE TERM
 = 0.1000E+31(WHEN MIN. R.F.=1)  AT K=   0, I=   0, J=   0

 MAXIMUM STEPSIZE WHICH MEETS STABILITY CRITERION OF THE DISPERSION TERM
 = 0.7295E-02(WHEN MIN. R.F.=1)  AT K=   3, I=   2, J=  30
     1 CALLS TO GCG PACKAGE FOR TRANSPORT TIME STEP   6 IN FLOW TIME STEP  13 STRESS PERIOD   2
    19 TOTAL ITERATIONS
0WARNING: NUMERICAL OSCILLATION ENCOUNTERED
 ONE OR MORE CELL CONCENTRATIONS LESS THAN CRHOREF
 SMALLEST DENSITY =  0.100E+04
 AT CELL (I,J,K) = (   2,  57,  25)

 
 SOLVING FOR HEAD 
 FLOW MODEL IS TRANSIENT
 FLOW MODEL CONTAINS CONSTANT-HEAD CELLS


 MAXIMUM STEPSIZE DURING WHICH ANY PARTICLE CANNOT MOVE MORE THAN ONE CELL
 = 0.1702    (WHEN MIN. R.F.=1)  AT K=   3, I=   2, J=  30

 MAXIMUM STEPSIZE WHICH MEETS STABILITY CRITERION OF THE ADVECTION TERM
 (FOR PURE FINITE-DIFFERENCE OPTION, MIXELM=0) 
 = 0.1349    (WHEN MIN. R.F.=1)  AT K=   3, I=   2, J=  31


 TOTAL NUMBER OF POINT SOURCES/SINKS PRESENT IN THE FLOW MODEL =   240

 MAXIMUM STEPSIZE WHICH MEETS STABILITY CRITERION OF THE SINK & SOURCE TERM
 = 0.1000E+31(WHEN MIN. R.F.=1)  AT K=   0, I=   0, J=   0

 MAXIMUM STEPSIZE WHICH MEETS STABILITY CRITERION OF THE DISPERSION TERM
 = 0.7294E-02(WHEN MIN. R.F.=1)  AT K=   3, I=   2, J=  30
     1 CALLS TO GCG PACKAGE FOR TRANSPORT TIME STEP   7 IN FLOW TIME STEP  13 STRESS PERIOD   2
    19 TOTAL ITERATIONS
0WARNING: NUMERICAL OSCILLATION ENCOUNTERED
 ONE OR MORE CELL CONCENTRATIONS LESS THAN CRHOREF
 SMALLEST DENSITY =  0.100E+04
 AT CELL (I,J,K) = (   2,  57,  25)

 
 SOLVING FOR HEAD 
 FLOW MODEL IS TRANSIENT
 FLOW MODEL CONTAINS CONSTANT-HEAD CELLS


 MAXIMUM STEPSIZE DURING WHICH ANY PARTICLE CANNOT MOVE MORE THAN ONE CELL
 = 0.1702    (WHEN MIN. R.F.=1)  AT K=   3, I=   2, J=  30

 MAXIMUM STEPSIZE WHICH MEETS STABILITY CRITERION OF THE ADVECTION TERM
 (FOR PURE FINITE-DIFFERENCE OPTION, MIXELM=0) 
 = 0.1349    (WHEN MIN. R.F.=1)  AT K=   3, I=   2, J=  31


 TOTAL NUMBER OF POINT SOURCES/SINKS PRESENT IN THE FLOW MODEL =   240

 MAXIMUM STEPSIZE WHICH MEETS STABILITY CRITERION OF THE SINK & SOURCE TERM
 = 0.1000E+31(WHEN MIN. R.F.=1)  AT K=   0, I=   0, J=   0

 MAXIMUM STEPSIZE WHICH MEETS STABILITY CRITERION OF THE DISPERSION TERM
 = 0.7294E-02(WHEN MIN. R.F.=1)  AT K=   3, I=   2, J=  30
     1 CALLS TO GCG PACKAGE FOR TRANSPORT TIME STEP   8 IN FLOW TIME STEP  13 STRESS PERIOD   2
    18 TOTAL ITERATIONS
  MAXIMUM CONCENTRATION CHANGES FOR EACH ITERATION:
  MAX. CHANGE LAYER,ROW,COL MAX. CHANGE LAYER,ROW,COL MAX. CHANGE LAYER,ROW,COL MAX. CHANGE LAYER,ROW,COL MAX. CHANGE LAYER,ROW,COL
 ------------------------------------------------------------------------------------------------------------------------------------
   0.3878E-02 ( 10,  1, 52)  0.9749E-03 (  6,  1, 51)  0.3298E-03 (  5,  2, 56)  0.1630E-03 (  6,  1, 40)  0.9791E-04 (  6,  1, 40)
   0.5796E-04 (  3,  2, 31)  0.3598E-04 (  4,  2, 31)  0.2367E-04 (  3,  2, 29)  0.1483E-04 (  3,  2, 32)  0.8116E-05 (  3,  2, 29)
   0.4513E-05 (  4,  3, 33)  0.2529E-05 (  3,  2, 31)  0.1422E-05 (  4,  3, 31)  0.8261E-06 (  3,  3, 31)  0.4102E-06 (  4,  1, 33)
   0.1864E-06 (  3,  1, 34)  0.1231E-06 (  4,  1, 34)  0.6786E-07 (  3,  3, 36)
0WARNING: NUMERICAL OSCILLATION ENCOUNTERED
 ONE OR MORE CELL CONCENTRATIONS LESS THAN CRHOREF
 SMALLEST DENSITY =  0.100E+04
 AT CELL (I,J,K) = (   3,  66,  22)



                                          ================================================
                                                         FROM TIME =   14.000     TO    15.000    

 
 SOLVING FOR HEAD 
 FLOW MODEL IS TRANSIENT
 FLOW MODEL CONTAINS CONSTANT-HEAD CELLS


 MAXIMUM STEPSIZE DURING WHICH ANY PARTICLE CANNOT MOVE MORE THAN ONE CELL
 = 0.1702    (WHEN MIN. R.F.=1)  AT K=   3, I=   2, J=  30

 MAXIMUM STEPSIZE WHICH MEETS STABILITY CRITERION OF THE ADVECTION TERM
 (FOR PURE FINITE-DIFFERENCE OPTION, MIXELM=0) 
 = 0.1349    (WHEN MIN. R.F.=1)  AT K=   3, I=   2, J=  31


 TOTAL NUMBER OF POINT SOURCES/SINKS PRESENT IN THE FLOW MODEL =   240

 MAXIMUM STEPSIZE WHICH MEETS STABILITY CRITERION OF THE SINK & SOURCE TERM
 = 0.1000E+31(WHEN MIN. R.F.=1)  AT K=   0, I=   0, J=   0

 MAXIMUM STEPSIZE WHICH MEETS STABILITY CRITERION OF THE DISPERSION TERM
 = 0.7294E-02(WHEN MIN. R.F.=1)  AT K=   3, I=   2, J=  30


     1 CALLS TO GCG PACKAGE FOR TRANSPORT TIME STEP   1 IN FLOW TIME STEP  14 STRESS PERIOD   2
    19 TOTAL ITERATIONS

 NO OUTPUT CONTROL FOR STRESS PERIOD    2   TIME STEP  14
0WARNING: NUMERICAL OSCILLATION ENCOUNTERED
 ONE OR MORE CELL CONCENTRATIONS LESS THAN CRHOREF
 SMALLEST DENSITY =  0.100E+04
 AT CELL (I,J,K) = (   3,  66,  22)

 
 SOLVING FOR HEAD 
 FLOW MODEL IS TRANSIENT
 FLOW MODEL CONTAINS CONSTANT-HEAD CELLS


 MAXIMUM STEPSIZE DURING WHICH ANY PARTICLE CANNOT MOVE MORE THAN ONE CELL
 = 0.1702    (WHEN MIN. R.F.=1)  AT K=   3, I=   2, J=  30

 MAXIMUM STEPSIZE WHICH MEETS STABILITY CRITERION OF THE ADVECTION TERM
 (FOR PURE FINITE-DIFFERENCE OPTION, MIXELM=0) 
 = 0.1349    (WHEN MIN. R.F.=1)  AT K=   3, I=   2, J=  31


 TOTAL NUMBER OF POINT SOURCES/SINKS PRESENT IN THE FLOW MODEL =   240

 MAXIMUM STEPSIZE WHICH MEETS STABILITY CRITERION OF THE SINK & SOURCE TERM
 = 0.1000E+31(WHEN MIN. R.F.=1)  AT K=   0, I=   0, J=   0

 MAXIMUM STEPSIZE WHICH MEETS STABILITY CRITERION OF THE DISPERSION TERM
 = 0.7294E-02(WHEN MIN. R.F.=1)  AT K=   3, I=   2, J=  30
     1 CALLS TO GCG PACKAGE FOR TRANSPORT TIME STEP   2 IN FLOW TIME STEP  14 STRESS PERIOD   2
    19 TOTAL ITERATIONS
0WARNING: NUMERICAL OSCILLATION ENCOUNTERED
 ONE OR MORE CELL CONCENTRATIONS LESS THAN CRHOREF
 SMALLEST DENSITY =  0.100E+04
 AT CELL (I,J,K) = (   3,  66,  22)

 
 SOLVING FOR HEAD 
 FLOW MODEL IS TRANSIENT
 FLOW MODEL CONTAINS CONSTANT-HEAD CELLS


 MAXIMUM STEPSIZE DURING WHICH ANY PARTICLE CANNOT MOVE MORE THAN ONE CELL
 = 0.1702    (WHEN MIN. R.F.=1)  AT K=   3, I=   2, J=  30

 MAXIMUM STEPSIZE WHICH MEETS STABILITY CRITERION OF THE ADVECTION TERM
 (FOR PURE FINITE-DIFFERENCE OPTION, MIXELM=0) 
 = 0.1349    (WHEN MIN. R.F.=1)  AT K=   3, I=   2, J=  31


 TOTAL NUMBER OF POINT SOURCES/SINKS PRESENT IN THE FLOW MODEL =   240

 MAXIMUM STEPSIZE WHICH MEETS STABILITY CRITERION OF THE SINK & SOURCE TERM
 = 0.1000E+31(WHEN MIN. R.F.=1)  AT K=   0, I=   0, J=   0

 MAXIMUM STEPSIZE WHICH MEETS STABILITY CRITERION OF THE DISPERSION TERM
 = 0.7294E-02(WHEN MIN. R.F.=1)  AT K=   3, I=   2, J=  30
     1 CALLS TO GCG PACKAGE FOR TRANSPORT TIME STEP   3 IN FLOW TIME STEP  14 STRESS PERIOD   2
    19 TOTAL ITERATIONS
0WARNING: NUMERICAL OSCILLATION ENCOUNTERED
 ONE OR MORE CELL CONCENTRATIONS LESS THAN CRHOREF
 SMALLEST DENSITY =  0.100E+04
 AT CELL (I,J,K) = (   3,  66,  22)

 
 SOLVING FOR HEAD 
 FLOW MODEL IS TRANSIENT
 FLOW MODEL CONTAINS CONSTANT-HEAD CELLS


 MAXIMUM STEPSIZE DURING WHICH ANY PARTICLE CANNOT MOVE MORE THAN ONE CELL
 = 0.1702    (WHEN MIN. R.F.=1)  AT K=   3, I=   2, J=  30

 MAXIMUM STEPSIZE WHICH MEETS STABILITY CRITERION OF THE ADVECTION TERM
 (FOR PURE FINITE-DIFFERENCE OPTION, MIXELM=0) 
 = 0.1349    (WHEN MIN. R.F.=1)  AT K=   3, I=   2, J=  31


 TOTAL NUMBER OF POINT SOURCES/SINKS PRESENT IN THE FLOW MODEL =   240

 MAXIMUM STEPSIZE WHICH MEETS STABILITY CRITERION OF THE SINK & SOURCE TERM
 = 0.1000E+31(WHEN MIN. R.F.=1)  AT K=   0, I=   0, J=   0

 MAXIMUM STEPSIZE WHICH MEETS STABILITY CRITERION OF THE DISPERSION TERM
 = 0.7294E-02(WHEN MIN. R.F.=1)  AT K=   3, I=   2, J=  30
     1 CALLS TO GCG PACKAGE FOR TRANSPORT TIME STEP   4 IN FLOW TIME STEP  14 STRESS PERIOD   2
    19 TOTAL ITERATIONS
0WARNING: NUMERICAL OSCILLATION ENCOUNTERED
 ONE OR MORE CELL CONCENTRATIONS LESS THAN CRHOREF
 SMALLEST DENSITY =  0.100E+04
 AT CELL (I,J,K) = (   3,  66,  22)

 
 SOLVING FOR HEAD 
 FLOW MODEL IS TRANSIENT
 FLOW MODEL CONTAINS CONSTANT-HEAD CELLS


 MAXIMUM STEPSIZE DURING WHICH ANY PARTICLE CANNOT MOVE MORE THAN ONE CELL
 = 0.1702    (WHEN MIN. R.F.=1)  AT K=   3, I=   2, J=  30

 MAXIMUM STEPSIZE WHICH MEETS STABILITY CRITERION OF THE ADVECTION TERM
 (FOR PURE FINITE-DIFFERENCE OPTION, MIXELM=0) 
 = 0.1349    (WHEN MIN. R.F.=1)  AT K=   3, I=   2, J=  31


 TOTAL NUMBER OF POINT SOURCES/SINKS PRESENT IN THE FLOW MODEL =   240

 MAXIMUM STEPSIZE WHICH MEETS STABILITY CRITERION OF THE SINK & SOURCE TERM
 = 0.1000E+31(WHEN MIN. R.F.=1)  AT K=   0, I=   0, J=   0

 MAXIMUM STEPSIZE WHICH MEETS STABILITY CRITERION OF THE DISPERSION TERM
 = 0.7294E-02(WHEN MIN. R.F.=1)  AT K=   3, I=   2, J=  30
     1 CALLS TO GCG PACKAGE FOR TRANSPORT TIME STEP   5 IN FLOW TIME STEP  14 STRESS PERIOD   2
    19 TOTAL ITERATIONS
0WARNING: NUMERICAL OSCILLATION ENCOUNTERED
 ONE OR MORE CELL CONCENTRATIONS LESS THAN CRHOREF
 SMALLEST DENSITY =  0.100E+04
 AT CELL (I,J,K) = (   3,  66,  22)

 
 SOLVING FOR HEAD 
 FLOW MODEL IS TRANSIENT
 FLOW MODEL CONTAINS CONSTANT-HEAD CELLS


 MAXIMUM STEPSIZE DURING WHICH ANY PARTICLE CANNOT MOVE MORE THAN ONE CELL
 = 0.1702    (WHEN MIN. R.F.=1)  AT K=   3, I=   2, J=  30

 MAXIMUM STEPSIZE WHICH MEETS STABILITY CRITERION OF THE ADVECTION TERM
 (FOR PURE FINITE-DIFFERENCE OPTION, MIXELM=0) 
 = 0.1349    (WHEN MIN. R.F.=1)  AT K=   3, I=   2, J=  31


 TOTAL NUMBER OF POINT SOURCES/SINKS PRESENT IN THE FLOW MODEL =   240

 MAXIMUM STEPSIZE WHICH MEETS STABILITY CRITERION OF THE SINK & SOURCE TERM
 = 0.1000E+31(WHEN MIN. R.F.=1)  AT K=   0, I=   0, J=   0

 MAXIMUM STEPSIZE WHICH MEETS STABILITY CRITERION OF THE DISPERSION TERM
 = 0.7294E-02(WHEN MIN. R.F.=1)  AT K=   3, I=   2, J=  30
     1 CALLS TO GCG PACKAGE FOR TRANSPORT TIME STEP   6 IN FLOW TIME STEP  14 STRESS PERIOD   2
    19 TOTAL ITERATIONS
0WARNING: NUMERICAL OSCILLATION ENCOUNTERED
 ONE OR MORE CELL CONCENTRATIONS LESS THAN CRHOREF
 SMALLEST DENSITY =  0.100E+04
 AT CELL (I,J,K) = (   2,  55,  26)

 
 SOLVING FOR HEAD 
 FLOW MODEL IS TRANSIENT
 FLOW MODEL CONTAINS CONSTANT-HEAD CELLS


 MAXIMUM STEPSIZE DURING WHICH ANY PARTICLE CANNOT MOVE MORE THAN ONE CELL
 = 0.1702    (WHEN MIN. R.F.=1)  AT K=   3, I=   2, J=  30

 MAXIMUM STEPSIZE WHICH MEETS STABILITY CRITERION OF THE ADVECTION TERM
 (FOR PURE FINITE-DIFFERENCE OPTION, MIXELM=0) 
 = 0.1349    (WHEN MIN. R.F.=1)  AT K=   3, I=   2, J=  31


 TOTAL NUMBER OF POINT SOURCES/SINKS PRESENT IN THE FLOW MODEL =   240

 MAXIMUM STEPSIZE WHICH MEETS STABILITY CRITERION OF THE SINK & SOURCE TERM
 = 0.1000E+31(WHEN MIN. R.F.=1)  AT K=   0, I=   0, J=   0

 MAXIMUM STEPSIZE WHICH MEETS STABILITY CRITERION OF THE DISPERSION TERM
 = 0.7294E-02(WHEN MIN. R.F.=1)  AT K=   3, I=   2, J=  30
     1 CALLS TO GCG PACKAGE FOR TRANSPORT TIME STEP   7 IN FLOW TIME STEP  14 STRESS PERIOD   2
    19 TOTAL ITERATIONS
0WARNING: NUMERICAL OSCILLATION ENCOUNTERED
 ONE OR MORE CELL CONCENTRATIONS LESS THAN CRHOREF
 SMALLEST DENSITY =  0.100E+04
 AT CELL (I,J,K) = (   2,  55,  26)

 
 SOLVING FOR HEAD 
 FLOW MODEL IS TRANSIENT
 FLOW MODEL CONTAINS CONSTANT-HEAD CELLS


 MAXIMUM STEPSIZE DURING WHICH ANY PARTICLE CANNOT MOVE MORE THAN ONE CELL
 = 0.1702    (WHEN MIN. R.F.=1)  AT K=   3, I=   2, J=  30

 MAXIMUM STEPSIZE WHICH MEETS STABILITY CRITERION OF THE ADVECTION TERM
 (FOR PURE FINITE-DIFFERENCE OPTION, MIXELM=0) 
 = 0.1349    (WHEN MIN. R.F.=1)  AT K=   3, I=   2, J=  31


 TOTAL NUMBER OF POINT SOURCES/SINKS PRESENT IN THE FLOW MODEL =   240

 MAXIMUM STEPSIZE WHICH MEETS STABILITY CRITERION OF THE SINK & SOURCE TERM
 = 0.1000E+31(WHEN MIN. R.F.=1)  AT K=   0, I=   0, J=   0

 MAXIMUM STEPSIZE WHICH MEETS STABILITY CRITERION OF THE DISPERSION TERM
 = 0.7294E-02(WHEN MIN. R.F.=1)  AT K=   3, I=   2, J=  30
     1 CALLS TO GCG PACKAGE FOR TRANSPORT TIME STEP   8 IN FLOW TIME STEP  14 STRESS PERIOD   2
    18 TOTAL ITERATIONS
  MAXIMUM CONCENTRATION CHANGES FOR EACH ITERATION:
  MAX. CHANGE LAYER,ROW,COL MAX. CHANGE LAYER,ROW,COL MAX. CHANGE LAYER,ROW,COL MAX. CHANGE LAYER,ROW,COL MAX. CHANGE LAYER,ROW,COL
 ------------------------------------------------------------------------------------------------------------------------------------
   0.3603E-02 ( 10,  1, 52)  0.8696E-03 (  6,  1, 51)  0.2972E-03 (  5,  2, 56)  0.1426E-03 (  6,  1, 40)  0.8636E-04 (  6,  1, 40)
   0.5133E-04 (  3,  2, 31)  0.3189E-04 (  4,  2, 31)  0.2115E-04 (  3,  2, 29)  0.1317E-04 (  3,  2, 32)  0.7262E-05 (  3,  2, 29)
   0.3991E-05 (  4,  3, 33)  0.2242E-05 (  3,  2, 31)  0.1267E-05 (  4,  3, 31)  0.7346E-06 (  3,  3, 31)  0.3648E-06 (  4,  1, 33)
   0.1639E-06 (  3,  1, 34)  0.1086E-06 (  4,  1, 34)  0.6002E-07 (  3,  3, 36)
0WARNING: NUMERICAL OSCILLATION ENCOUNTERED
 ONE OR MORE CELL CONCENTRATIONS LESS THAN CRHOREF
 SMALLEST DENSITY =  0.100E+04
 AT CELL (I,J,K) = (   2,  55,  26)



                                          ================================================
                                                         FROM TIME =   15.000     TO    16.000    

 
 SOLVING FOR HEAD 
 FLOW MODEL IS TRANSIENT
 FLOW MODEL CONTAINS CONSTANT-HEAD CELLS


 MAXIMUM STEPSIZE DURING WHICH ANY PARTICLE CANNOT MOVE MORE THAN ONE CELL
 = 0.1702    (WHEN MIN. R.F.=1)  AT K=   3, I=   2, J=  30

 MAXIMUM STEPSIZE WHICH MEETS STABILITY CRITERION OF THE ADVECTION TERM
 (FOR PURE FINITE-DIFFERENCE OPTION, MIXELM=0) 
 = 0.1349    (WHEN MIN. R.F.=1)  AT K=   3, I=   2, J=  31


 TOTAL NUMBER OF POINT SOURCES/SINKS PRESENT IN THE FLOW MODEL =   240

 MAXIMUM STEPSIZE WHICH MEETS STABILITY CRITERION OF THE SINK & SOURCE TERM
 = 0.1000E+31(WHEN MIN. R.F.=1)  AT K=   0, I=   0, J=   0

 MAXIMUM STEPSIZE WHICH MEETS STABILITY CRITERION OF THE DISPERSION TERM
 = 0.7294E-02(WHEN MIN. R.F.=1)  AT K=   3, I=   2, J=  30


     1 CALLS TO GCG PACKAGE FOR TRANSPORT TIME STEP   1 IN FLOW TIME STEP  15 STRESS PERIOD   2
    19 TOTAL ITERATIONS

 NO OUTPUT CONTROL FOR STRESS PERIOD    2   TIME STEP  15
0WARNING: NUMERICAL OSCILLATION ENCOUNTERED
 ONE OR MORE CELL CONCENTRATIONS LESS THAN CRHOREF
 SMALLEST DENSITY =  0.100E+04
 AT CELL (I,J,K) = (   2,  55,  26)

 
 SOLVING FOR HEAD 
 FLOW MODEL IS TRANSIENT
 FLOW MODEL CONTAINS CONSTANT-HEAD CELLS


 MAXIMUM STEPSIZE DURING WHICH ANY PARTICLE CANNOT MOVE MORE THAN ONE CELL
 = 0.1702    (WHEN MIN. R.F.=1)  AT K=   3, I=   2, J=  30

 MAXIMUM STEPSIZE WHICH MEETS STABILITY CRITERION OF THE ADVECTION TERM
 (FOR PURE FINITE-DIFFERENCE OPTION, MIXELM=0) 
 = 0.1349    (WHEN MIN. R.F.=1)  AT K=   3, I=   2, J=  31


 TOTAL NUMBER OF POINT SOURCES/SINKS PRESENT IN THE FLOW MODEL =   240

 MAXIMUM STEPSIZE WHICH MEETS STABILITY CRITERION OF THE SINK & SOURCE TERM
 = 0.1000E+31(WHEN MIN. R.F.=1)  AT K=   0, I=   0, J=   0

 MAXIMUM STEPSIZE WHICH MEETS STABILITY CRITERION OF THE DISPERSION TERM
 = 0.7294E-02(WHEN MIN. R.F.=1)  AT K=   3, I=   2, J=  30
     1 CALLS TO GCG PACKAGE FOR TRANSPORT TIME STEP   2 IN FLOW TIME STEP  15 STRESS PERIOD   2
    19 TOTAL ITERATIONS
0WARNING: NUMERICAL OSCILLATION ENCOUNTERED
 ONE OR MORE CELL CONCENTRATIONS LESS THAN CRHOREF
 SMALLEST DENSITY =  0.100E+04
 AT CELL (I,J,K) = (   2,  55,  26)

 
 SOLVING FOR HEAD 
 FLOW MODEL IS TRANSIENT
 FLOW MODEL CONTAINS CONSTANT-HEAD CELLS


 MAXIMUM STEPSIZE DURING WHICH ANY PARTICLE CANNOT MOVE MORE THAN ONE CELL
 = 0.1702    (WHEN MIN. R.F.=1)  AT K=   3, I=   2, J=  30

 MAXIMUM STEPSIZE WHICH MEETS STABILITY CRITERION OF THE ADVECTION TERM
 (FOR PURE FINITE-DIFFERENCE OPTION, MIXELM=0) 
 = 0.1349    (WHEN MIN. R.F.=1)  AT K=   3, I=   2, J=  31


 TOTAL NUMBER OF POINT SOURCES/SINKS PRESENT IN THE FLOW MODEL =   240

 MAXIMUM STEPSIZE WHICH MEETS STABILITY CRITERION OF THE SINK & SOURCE TERM
 = 0.1000E+31(WHEN MIN. R.F.=1)  AT K=   0, I=   0, J=   0

 MAXIMUM STEPSIZE WHICH MEETS STABILITY CRITERION OF THE DISPERSION TERM
 = 0.7294E-02(WHEN MIN. R.F.=1)  AT K=   3, I=   2, J=  30
     1 CALLS TO GCG PACKAGE FOR TRANSPORT TIME STEP   3 IN FLOW TIME STEP  15 STRESS PERIOD   2
    19 TOTAL ITERATIONS
0WARNING: NUMERICAL OSCILLATION ENCOUNTERED
 ONE OR MORE CELL CONCENTRATIONS LESS THAN CRHOREF
 SMALLEST DENSITY =  0.100E+04
 AT CELL (I,J,K) = (   2,  55,  26)

 
 SOLVING FOR HEAD 
 FLOW MODEL IS TRANSIENT
 FLOW MODEL CONTAINS CONSTANT-HEAD CELLS


 MAXIMUM STEPSIZE DURING WHICH ANY PARTICLE CANNOT MOVE MORE THAN ONE CELL
 = 0.1702    (WHEN MIN. R.F.=1)  AT K=   3, I=   2, J=  30

 MAXIMUM STEPSIZE WHICH MEETS STABILITY CRITERION OF THE ADVECTION TERM
 (FOR PURE FINITE-DIFFERENCE OPTION, MIXELM=0) 
 = 0.1349    (WHEN MIN. R.F.=1)  AT K=   3, I=   2, J=  31


 TOTAL NUMBER OF POINT SOURCES/SINKS PRESENT IN THE FLOW MODEL =   240

 MAXIMUM STEPSIZE WHICH MEETS STABILITY CRITERION OF THE SINK & SOURCE TERM
 = 0.1000E+31(WHEN MIN. R.F.=1)  AT K=   0, I=   0, J=   0

 MAXIMUM STEPSIZE WHICH MEETS STABILITY CRITERION OF THE DISPERSION TERM
 = 0.7294E-02(WHEN MIN. R.F.=1)  AT K=   3, I=   2, J=  30
     1 CALLS TO GCG PACKAGE FOR TRANSPORT TIME STEP   4 IN FLOW TIME STEP  15 STRESS PERIOD   2
    19 TOTAL ITERATIONS
0WARNING: NUMERICAL OSCILLATION ENCOUNTERED
 ONE OR MORE CELL CONCENTRATIONS LESS THAN CRHOREF
 SMALLEST DENSITY =  0.100E+04
 AT CELL (I,J,K) = (   2,  55,  26)

 
 SOLVING FOR HEAD 
 FLOW MODEL IS TRANSIENT
 FLOW MODEL CONTAINS CONSTANT-HEAD CELLS


 MAXIMUM STEPSIZE DURING WHICH ANY PARTICLE CANNOT MOVE MORE THAN ONE CELL
 = 0.1702    (WHEN MIN. R.F.=1)  AT K=   3, I=   2, J=  30

 MAXIMUM STEPSIZE WHICH MEETS STABILITY CRITERION OF THE ADVECTION TERM
 (FOR PURE FINITE-DIFFERENCE OPTION, MIXELM=0) 
 = 0.1349    (WHEN MIN. R.F.=1)  AT K=   3, I=   2, J=  31


 TOTAL NUMBER OF POINT SOURCES/SINKS PRESENT IN THE FLOW MODEL =   240

 MAXIMUM STEPSIZE WHICH MEETS STABILITY CRITERION OF THE SINK & SOURCE TERM
 = 0.1000E+31(WHEN MIN. R.F.=1)  AT K=   0, I=   0, J=   0

 MAXIMUM STEPSIZE WHICH MEETS STABILITY CRITERION OF THE DISPERSION TERM
 = 0.7294E-02(WHEN MIN. R.F.=1)  AT K=   3, I=   2, J=  30
     1 CALLS TO GCG PACKAGE FOR TRANSPORT TIME STEP   5 IN FLOW TIME STEP  15 STRESS PERIOD   2
    19 TOTAL ITERATIONS
0WARNING: NUMERICAL OSCILLATION ENCOUNTERED
 ONE OR MORE CELL CONCENTRATIONS LESS THAN CRHOREF
 SMALLEST DENSITY =  0.100E+04
 AT CELL (I,J,K) = (   2,  55,  26)

 
 SOLVING FOR HEAD 
 FLOW MODEL IS TRANSIENT
 FLOW MODEL CONTAINS CONSTANT-HEAD CELLS


 MAXIMUM STEPSIZE DURING WHICH ANY PARTICLE CANNOT MOVE MORE THAN ONE CELL
 = 0.1702    (WHEN MIN. R.F.=1)  AT K=   3, I=   2, J=  30

 MAXIMUM STEPSIZE WHICH MEETS STABILITY CRITERION OF THE ADVECTION TERM
 (FOR PURE FINITE-DIFFERENCE OPTION, MIXELM=0) 
 = 0.1349    (WHEN MIN. R.F.=1)  AT K=   3, I=   2, J=  31


 TOTAL NUMBER OF POINT SOURCES/SINKS PRESENT IN THE FLOW MODEL =   240

 MAXIMUM STEPSIZE WHICH MEETS STABILITY CRITERION OF THE SINK & SOURCE TERM
 = 0.1000E+31(WHEN MIN. R.F.=1)  AT K=   0, I=   0, J=   0

 MAXIMUM STEPSIZE WHICH MEETS STABILITY CRITERION OF THE DISPERSION TERM
 = 0.7294E-02(WHEN MIN. R.F.=1)  AT K=   3, I=   2, J=  30
     1 CALLS TO GCG PACKAGE FOR TRANSPORT TIME STEP   6 IN FLOW TIME STEP  15 STRESS PERIOD   2
    19 TOTAL ITERATIONS
0WARNING: NUMERICAL OSCILLATION ENCOUNTERED
 ONE OR MORE CELL CONCENTRATIONS LESS THAN CRHOREF
 SMALLEST DENSITY =  0.100E+04
 AT CELL (I,J,K) = (   2,  55,  26)

 
 SOLVING FOR HEAD 
 FLOW MODEL IS TRANSIENT
 FLOW MODEL CONTAINS CONSTANT-HEAD CELLS


 MAXIMUM STEPSIZE DURING WHICH ANY PARTICLE CANNOT MOVE MORE THAN ONE CELL
 = 0.1702    (WHEN MIN. R.F.=1)  AT K=   3, I=   2, J=  30

 MAXIMUM STEPSIZE WHICH MEETS STABILITY CRITERION OF THE ADVECTION TERM
 (FOR PURE FINITE-DIFFERENCE OPTION, MIXELM=0) 
 = 0.1349    (WHEN MIN. R.F.=1)  AT K=   3, I=   2, J=  31


 TOTAL NUMBER OF POINT SOURCES/SINKS PRESENT IN THE FLOW MODEL =   240

 MAXIMUM STEPSIZE WHICH MEETS STABILITY CRITERION OF THE SINK & SOURCE TERM
 = 0.1000E+31(WHEN MIN. R.F.=1)  AT K=   0, I=   0, J=   0

 MAXIMUM STEPSIZE WHICH MEETS STABILITY CRITERION OF THE DISPERSION TERM
 = 0.7293E-02(WHEN MIN. R.F.=1)  AT K=   3, I=   2, J=  30
     1 CALLS TO GCG PACKAGE FOR TRANSPORT TIME STEP   7 IN FLOW TIME STEP  15 STRESS PERIOD   2
    19 TOTAL ITERATIONS
0WARNING: NUMERICAL OSCILLATION ENCOUNTERED
 ONE OR MORE CELL CONCENTRATIONS LESS THAN CRHOREF
 SMALLEST DENSITY =  0.100E+04
 AT CELL (I,J,K) = (   2,  56,  26)

 
 SOLVING FOR HEAD 
 FLOW MODEL IS TRANSIENT
 FLOW MODEL CONTAINS CONSTANT-HEAD CELLS


 MAXIMUM STEPSIZE DURING WHICH ANY PARTICLE CANNOT MOVE MORE THAN ONE CELL
 = 0.1702    (WHEN MIN. R.F.=1)  AT K=   3, I=   2, J=  30

 MAXIMUM STEPSIZE WHICH MEETS STABILITY CRITERION OF THE ADVECTION TERM
 (FOR PURE FINITE-DIFFERENCE OPTION, MIXELM=0) 
 = 0.1349    (WHEN MIN. R.F.=1)  AT K=   3, I=   2, J=  31


 TOTAL NUMBER OF POINT SOURCES/SINKS PRESENT IN THE FLOW MODEL =   240

 MAXIMUM STEPSIZE WHICH MEETS STABILITY CRITERION OF THE SINK & SOURCE TERM
 = 0.1000E+31(WHEN MIN. R.F.=1)  AT K=   0, I=   0, J=   0

 MAXIMUM STEPSIZE WHICH MEETS STABILITY CRITERION OF THE DISPERSION TERM
 = 0.7293E-02(WHEN MIN. R.F.=1)  AT K=   3, I=   2, J=  30
     1 CALLS TO GCG PACKAGE FOR TRANSPORT TIME STEP   8 IN FLOW TIME STEP  15 STRESS PERIOD   2
    17 TOTAL ITERATIONS
  MAXIMUM CONCENTRATION CHANGES FOR EACH ITERATION:
  MAX. CHANGE LAYER,ROW,COL MAX. CHANGE LAYER,ROW,COL MAX. CHANGE LAYER,ROW,COL MAX. CHANGE LAYER,ROW,COL MAX. CHANGE LAYER,ROW,COL
 ------------------------------------------------------------------------------------------------------------------------------------
   0.3347E-02 ( 10,  1, 52)  0.7781E-03 (  6,  1, 51)  0.2694E-03 (  9,  1, 57)  0.1281E-03 (  5,  2, 53)  0.7659E-04 (  6,  1, 40)
   0.4577E-04 (  3,  2, 31)  0.2845E-04 (  4,  2, 31)  0.1899E-04 (  3,  2, 29)  0.1178E-04 (  3,  2, 32)  0.6533E-05 (  3,  2, 29)
   0.3553E-05 (  4,  3, 33)  0.2001E-05 (  3,  2, 31)  0.1136E-05 (  4,  3, 31)  0.6575E-06 (  3,  3, 31)  0.3264E-06 (  4,  1, 33)
   0.1453E-06 (  3,  1, 34)  0.9656E-07 (  4,  1, 34)
0WARNING: NUMERICAL OSCILLATION ENCOUNTERED
 ONE OR MORE CELL CONCENTRATIONS LESS THAN CRHOREF
 SMALLEST DENSITY =  0.100E+04
 AT CELL (I,J,K) = (   2,  56,  26)



                                          ================================================
                                                         FROM TIME =   16.000     TO    17.000    

 
 SOLVING FOR HEAD 
 FLOW MODEL IS TRANSIENT
 FLOW MODEL CONTAINS CONSTANT-HEAD CELLS


 MAXIMUM STEPSIZE DURING WHICH ANY PARTICLE CANNOT MOVE MORE THAN ONE CELL
 = 0.1702    (WHEN MIN. R.F.=1)  AT K=   3, I=   2, J=  30

 MAXIMUM STEPSIZE WHICH MEETS STABILITY CRITERION OF THE ADVECTION TERM
 (FOR PURE FINITE-DIFFERENCE OPTION, MIXELM=0) 
 = 0.1349    (WHEN MIN. R.F.=1)  AT K=   3, I=   2, J=  31


 TOTAL NUMBER OF POINT SOURCES/SINKS PRESENT IN THE FLOW MODEL =   240

 MAXIMUM STEPSIZE WHICH MEETS STABILITY CRITERION OF THE SINK & SOURCE TERM
 = 0.1000E+31(WHEN MIN. R.F.=1)  AT K=   0, I=   0, J=   0

 MAXIMUM STEPSIZE WHICH MEETS STABILITY CRITERION OF THE DISPERSION TERM
 = 0.7293E-02(WHEN MIN. R.F.=1)  AT K=   3, I=   2, J=  30


     1 CALLS TO GCG PACKAGE FOR TRANSPORT TIME STEP   1 IN FLOW TIME STEP  16 STRESS PERIOD   2
    19 TOTAL ITERATIONS

 NO OUTPUT CONTROL FOR STRESS PERIOD    2   TIME STEP  16
0WARNING: NUMERICAL OSCILLATION ENCOUNTERED
 ONE OR MORE CELL CONCENTRATIONS LESS THAN CRHOREF
 SMALLEST DENSITY =  0.100E+04
 AT CELL (I,J,K) = (   2,  56,  26)

 
 SOLVING FOR HEAD 
 FLOW MODEL IS TRANSIENT
 FLOW MODEL CONTAINS CONSTANT-HEAD CELLS


 MAXIMUM STEPSIZE DURING WHICH ANY PARTICLE CANNOT MOVE MORE THAN ONE CELL
 = 0.1702    (WHEN MIN. R.F.=1)  AT K=   3, I=   2, J=  30

 MAXIMUM STEPSIZE WHICH MEETS STABILITY CRITERION OF THE ADVECTION TERM
 (FOR PURE FINITE-DIFFERENCE OPTION, MIXELM=0) 
 = 0.1349    (WHEN MIN. R.F.=1)  AT K=   3, I=   2, J=  31


 TOTAL NUMBER OF POINT SOURCES/SINKS PRESENT IN THE FLOW MODEL =   240

 MAXIMUM STEPSIZE WHICH MEETS STABILITY CRITERION OF THE SINK & SOURCE TERM
 = 0.1000E+31(WHEN MIN. R.F.=1)  AT K=   0, I=   0, J=   0

 MAXIMUM STEPSIZE WHICH MEETS STABILITY CRITERION OF THE DISPERSION TERM
 = 0.7293E-02(WHEN MIN. R.F.=1)  AT K=   3, I=   2, J=  30
     1 CALLS TO GCG PACKAGE FOR TRANSPORT TIME STEP   2 IN FLOW TIME STEP  16 STRESS PERIOD   2
    19 TOTAL ITERATIONS
0WARNING: NUMERICAL OSCILLATION ENCOUNTERED
 ONE OR MORE CELL CONCENTRATIONS LESS THAN CRHOREF
 SMALLEST DENSITY =  0.100E+04
 AT CELL (I,J,K) = (   2,  56,  26)

 
 SOLVING FOR HEAD 
 FLOW MODEL IS TRANSIENT
 FLOW MODEL CONTAINS CONSTANT-HEAD CELLS


 MAXIMUM STEPSIZE DURING WHICH ANY PARTICLE CANNOT MOVE MORE THAN ONE CELL
 = 0.1702    (WHEN MIN. R.F.=1)  AT K=   3, I=   2, J=  30

 MAXIMUM STEPSIZE WHICH MEETS STABILITY CRITERION OF THE ADVECTION TERM
 (FOR PURE FINITE-DIFFERENCE OPTION, MIXELM=0) 
 = 0.1349    (WHEN MIN. R.F.=1)  AT K=   3, I=   2, J=  31


 TOTAL NUMBER OF POINT SOURCES/SINKS PRESENT IN THE FLOW MODEL =   240

 MAXIMUM STEPSIZE WHICH MEETS STABILITY CRITERION OF THE SINK & SOURCE TERM
 = 0.1000E+31(WHEN MIN. R.F.=1)  AT K=   0, I=   0, J=   0

 MAXIMUM STEPSIZE WHICH MEETS STABILITY CRITERION OF THE DISPERSION TERM
 = 0.7293E-02(WHEN MIN. R.F.=1)  AT K=   3, I=   2, J=  30
     1 CALLS TO GCG PACKAGE FOR TRANSPORT TIME STEP   3 IN FLOW TIME STEP  16 STRESS PERIOD   2
    19 TOTAL ITERATIONS
0WARNING: NUMERICAL OSCILLATION ENCOUNTERED
 ONE OR MORE CELL CONCENTRATIONS LESS THAN CRHOREF
 SMALLEST DENSITY =  0.100E+04
 AT CELL (I,J,K) = (   2,  56,  26)

 
 SOLVING FOR HEAD 
 FLOW MODEL IS TRANSIENT
 FLOW MODEL CONTAINS CONSTANT-HEAD CELLS


 MAXIMUM STEPSIZE DURING WHICH ANY PARTICLE CANNOT MOVE MORE THAN ONE CELL
 = 0.1702    (WHEN MIN. R.F.=1)  AT K=   3, I=   2, J=  30

 MAXIMUM STEPSIZE WHICH MEETS STABILITY CRITERION OF THE ADVECTION TERM
 (FOR PURE FINITE-DIFFERENCE OPTION, MIXELM=0) 
 = 0.1349    (WHEN MIN. R.F.=1)  AT K=   3, I=   2, J=  31


 TOTAL NUMBER OF POINT SOURCES/SINKS PRESENT IN THE FLOW MODEL =   240

 MAXIMUM STEPSIZE WHICH MEETS STABILITY CRITERION OF THE SINK & SOURCE TERM
 = 0.1000E+31(WHEN MIN. R.F.=1)  AT K=   0, I=   0, J=   0

 MAXIMUM STEPSIZE WHICH MEETS STABILITY CRITERION OF THE DISPERSION TERM
 = 0.7293E-02(WHEN MIN. R.F.=1)  AT K=   3, I=   2, J=  30
     1 CALLS TO GCG PACKAGE FOR TRANSPORT TIME STEP   4 IN FLOW TIME STEP  16 STRESS PERIOD   2
    19 TOTAL ITERATIONS
0WARNING: NUMERICAL OSCILLATION ENCOUNTERED
 ONE OR MORE CELL CONCENTRATIONS LESS THAN CRHOREF
 SMALLEST DENSITY =  0.100E+04
 AT CELL (I,J,K) = (   2,  56,  26)

 
 SOLVING FOR HEAD 
 FLOW MODEL IS TRANSIENT
 FLOW MODEL CONTAINS CONSTANT-HEAD CELLS


 MAXIMUM STEPSIZE DURING WHICH ANY PARTICLE CANNOT MOVE MORE THAN ONE CELL
 = 0.1701    (WHEN MIN. R.F.=1)  AT K=   3, I=   2, J=  30

 MAXIMUM STEPSIZE WHICH MEETS STABILITY CRITERION OF THE ADVECTION TERM
 (FOR PURE FINITE-DIFFERENCE OPTION, MIXELM=0) 
 = 0.1349    (WHEN MIN. R.F.=1)  AT K=   3, I=   2, J=  31


 TOTAL NUMBER OF POINT SOURCES/SINKS PRESENT IN THE FLOW MODEL =   240

 MAXIMUM STEPSIZE WHICH MEETS STABILITY CRITERION OF THE SINK & SOURCE TERM
 = 0.1000E+31(WHEN MIN. R.F.=1)  AT K=   0, I=   0, J=   0

 MAXIMUM STEPSIZE WHICH MEETS STABILITY CRITERION OF THE DISPERSION TERM
 = 0.7293E-02(WHEN MIN. R.F.=1)  AT K=   3, I=   2, J=  30
     1 CALLS TO GCG PACKAGE FOR TRANSPORT TIME STEP   5 IN FLOW TIME STEP  16 STRESS PERIOD   2
    19 TOTAL ITERATIONS
0WARNING: NUMERICAL OSCILLATION ENCOUNTERED
 ONE OR MORE CELL CONCENTRATIONS LESS THAN CRHOREF
 SMALLEST DENSITY =  0.100E+04
 AT CELL (I,J,K) = (   2,  56,  26)

 
 SOLVING FOR HEAD 
 FLOW MODEL IS TRANSIENT
 FLOW MODEL CONTAINS CONSTANT-HEAD CELLS


 MAXIMUM STEPSIZE DURING WHICH ANY PARTICLE CANNOT MOVE MORE THAN ONE CELL
 = 0.1701    (WHEN MIN. R.F.=1)  AT K=   3, I=   2, J=  30

 MAXIMUM STEPSIZE WHICH MEETS STABILITY CRITERION OF THE ADVECTION TERM
 (FOR PURE FINITE-DIFFERENCE OPTION, MIXELM=0) 
 = 0.1349    (WHEN MIN. R.F.=1)  AT K=   3, I=   2, J=  31


 TOTAL NUMBER OF POINT SOURCES/SINKS PRESENT IN THE FLOW MODEL =   240

 MAXIMUM STEPSIZE WHICH MEETS STABILITY CRITERION OF THE SINK & SOURCE TERM
 = 0.1000E+31(WHEN MIN. R.F.=1)  AT K=   0, I=   0, J=   0

 MAXIMUM STEPSIZE WHICH MEETS STABILITY CRITERION OF THE DISPERSION TERM
 = 0.7293E-02(WHEN MIN. R.F.=1)  AT K=   3, I=   2, J=  30
     1 CALLS TO GCG PACKAGE FOR TRANSPORT TIME STEP   6 IN FLOW TIME STEP  16 STRESS PERIOD   2
    19 TOTAL ITERATIONS
0WARNING: NUMERICAL OSCILLATION ENCOUNTERED
 ONE OR MORE CELL CONCENTRATIONS LESS THAN CRHOREF
 SMALLEST DENSITY =  0.100E+04
 AT CELL (I,J,K) = (   2,  56,  26)

 
 SOLVING FOR HEAD 
 FLOW MODEL IS TRANSIENT
 FLOW MODEL CONTAINS CONSTANT-HEAD CELLS


 MAXIMUM STEPSIZE DURING WHICH ANY PARTICLE CANNOT MOVE MORE THAN ONE CELL
 = 0.1701    (WHEN MIN. R.F.=1)  AT K=   3, I=   2, J=  30

 MAXIMUM STEPSIZE WHICH MEETS STABILITY CRITERION OF THE ADVECTION TERM
 (FOR PURE FINITE-DIFFERENCE OPTION, MIXELM=0) 
 = 0.1349    (WHEN MIN. R.F.=1)  AT K=   3, I=   2, J=  31


 TOTAL NUMBER OF POINT SOURCES/SINKS PRESENT IN THE FLOW MODEL =   240

 MAXIMUM STEPSIZE WHICH MEETS STABILITY CRITERION OF THE SINK & SOURCE TERM
 = 0.1000E+31(WHEN MIN. R.F.=1)  AT K=   0, I=   0, J=   0

 MAXIMUM STEPSIZE WHICH MEETS STABILITY CRITERION OF THE DISPERSION TERM
 = 0.7293E-02(WHEN MIN. R.F.=1)  AT K=   3, I=   2, J=  30
     1 CALLS TO GCG PACKAGE FOR TRANSPORT TIME STEP   7 IN FLOW TIME STEP  16 STRESS PERIOD   2
    19 TOTAL ITERATIONS
0WARNING: NUMERICAL OSCILLATION ENCOUNTERED
 ONE OR MORE CELL CONCENTRATIONS LESS THAN CRHOREF
 SMALLEST DENSITY =  0.100E+04
 AT CELL (I,J,K) = (   2,  56,  26)

 
 SOLVING FOR HEAD 
 FLOW MODEL IS TRANSIENT
 FLOW MODEL CONTAINS CONSTANT-HEAD CELLS


 MAXIMUM STEPSIZE DURING WHICH ANY PARTICLE CANNOT MOVE MORE THAN ONE CELL
 = 0.1701    (WHEN MIN. R.F.=1)  AT K=   3, I=   2, J=  30

 MAXIMUM STEPSIZE WHICH MEETS STABILITY CRITERION OF THE ADVECTION TERM
 (FOR PURE FINITE-DIFFERENCE OPTION, MIXELM=0) 
 = 0.1349    (WHEN MIN. R.F.=1)  AT K=   3, I=   2, J=  31


 TOTAL NUMBER OF POINT SOURCES/SINKS PRESENT IN THE FLOW MODEL =   240

 MAXIMUM STEPSIZE WHICH MEETS STABILITY CRITERION OF THE SINK & SOURCE TERM
 = 0.1000E+31(WHEN MIN. R.F.=1)  AT K=   0, I=   0, J=   0

 MAXIMUM STEPSIZE WHICH MEETS STABILITY CRITERION OF THE DISPERSION TERM
 = 0.7293E-02(WHEN MIN. R.F.=1)  AT K=   3, I=   2, J=  30
     1 CALLS TO GCG PACKAGE FOR TRANSPORT TIME STEP   8 IN FLOW TIME STEP  16 STRESS PERIOD   2
    17 TOTAL ITERATIONS
  MAXIMUM CONCENTRATION CHANGES FOR EACH ITERATION:
  MAX. CHANGE LAYER,ROW,COL MAX. CHANGE LAYER,ROW,COL MAX. CHANGE LAYER,ROW,COL MAX. CHANGE LAYER,ROW,COL MAX. CHANGE LAYER,ROW,COL
 ------------------------------------------------------------------------------------------------------------------------------------
   0.3203E-02 ( 13,  1, 48)  0.6985E-03 (  6,  1, 51)  0.2514E-03 (  9,  1, 57)  0.1164E-03 (  5,  2, 53)  0.6825E-04 (  6,  1, 40)
   0.4105E-04 (  3,  2, 31)  0.2551E-04 (  4,  2, 31)  0.1714E-04 (  3,  2, 29)  0.1058E-04 (  3,  2, 32)  0.5905E-05 (  3,  2, 29)
   0.3182E-05 (  4,  3, 33)  0.1796E-05 (  3,  2, 31)  0.1023E-05 (  4,  3, 31)  0.5919E-06 (  3,  3, 31)  0.2935E-06 (  4,  1, 33)
   0.1295E-06 (  3,  1, 34)  0.8639E-07 (  4,  1, 34)
0WARNING: NUMERICAL OSCILLATION ENCOUNTERED
 ONE OR MORE CELL CONCENTRATIONS LESS THAN CRHOREF
 SMALLEST DENSITY =  0.100E+04
 AT CELL (I,J,K) = (   2,  56,  26)



                                          ================================================
                                                         FROM TIME =   17.000     TO    18.000    

 
 SOLVING FOR HEAD 
 FLOW MODEL IS TRANSIENT
 FLOW MODEL CONTAINS CONSTANT-HEAD CELLS


 MAXIMUM STEPSIZE DURING WHICH ANY PARTICLE CANNOT MOVE MORE THAN ONE CELL
 = 0.1701    (WHEN MIN. R.F.=1)  AT K=   3, I=   2, J=  30

 MAXIMUM STEPSIZE WHICH MEETS STABILITY CRITERION OF THE ADVECTION TERM
 (FOR PURE FINITE-DIFFERENCE OPTION, MIXELM=0) 
 = 0.1349    (WHEN MIN. R.F.=1)  AT K=   3, I=   2, J=  31


 TOTAL NUMBER OF POINT SOURCES/SINKS PRESENT IN THE FLOW MODEL =   240

 MAXIMUM STEPSIZE WHICH MEETS STABILITY CRITERION OF THE SINK & SOURCE TERM
 = 0.1000E+31(WHEN MIN. R.F.=1)  AT K=   0, I=   0, J=   0

 MAXIMUM STEPSIZE WHICH MEETS STABILITY CRITERION OF THE DISPERSION TERM
 = 0.7293E-02(WHEN MIN. R.F.=1)  AT K=   3, I=   2, J=  30


     1 CALLS TO GCG PACKAGE FOR TRANSPORT TIME STEP   1 IN FLOW TIME STEP  17 STRESS PERIOD   2
    19 TOTAL ITERATIONS

 NO OUTPUT CONTROL FOR STRESS PERIOD    2   TIME STEP  17
0WARNING: NUMERICAL OSCILLATION ENCOUNTERED
 ONE OR MORE CELL CONCENTRATIONS LESS THAN CRHOREF
 SMALLEST DENSITY =  0.100E+04
 AT CELL (I,J,K) = (   2,  56,  26)

 
 SOLVING FOR HEAD 
 FLOW MODEL IS TRANSIENT
 FLOW MODEL CONTAINS CONSTANT-HEAD CELLS


 MAXIMUM STEPSIZE DURING WHICH ANY PARTICLE CANNOT MOVE MORE THAN ONE CELL
 = 0.1701    (WHEN MIN. R.F.=1)  AT K=   3, I=   2, J=  30

 MAXIMUM STEPSIZE WHICH MEETS STABILITY CRITERION OF THE ADVECTION TERM
 (FOR PURE FINITE-DIFFERENCE OPTION, MIXELM=0) 
 = 0.1349    (WHEN MIN. R.F.=1)  AT K=   3, I=   2, J=  31


 TOTAL NUMBER OF POINT SOURCES/SINKS PRESENT IN THE FLOW MODEL =   240

 MAXIMUM STEPSIZE WHICH MEETS STABILITY CRITERION OF THE SINK & SOURCE TERM
 = 0.1000E+31(WHEN MIN. R.F.=1)  AT K=   0, I=   0, J=   0

 MAXIMUM STEPSIZE WHICH MEETS STABILITY CRITERION OF THE DISPERSION TERM
 = 0.7293E-02(WHEN MIN. R.F.=1)  AT K=   3, I=   2, J=  30
     1 CALLS TO GCG PACKAGE FOR TRANSPORT TIME STEP   2 IN FLOW TIME STEP  17 STRESS PERIOD   2
    19 TOTAL ITERATIONS
0WARNING: NUMERICAL OSCILLATION ENCOUNTERED
 ONE OR MORE CELL CONCENTRATIONS LESS THAN CRHOREF
 SMALLEST DENSITY =  0.100E+04
 AT CELL (I,J,K) = (   3,  57,  26)

 
 SOLVING FOR HEAD 
 FLOW MODEL IS TRANSIENT
 FLOW MODEL CONTAINS CONSTANT-HEAD CELLS


 MAXIMUM STEPSIZE DURING WHICH ANY PARTICLE CANNOT MOVE MORE THAN ONE CELL
 = 0.1701    (WHEN MIN. R.F.=1)  AT K=   3, I=   2, J=  30

 MAXIMUM STEPSIZE WHICH MEETS STABILITY CRITERION OF THE ADVECTION TERM
 (FOR PURE FINITE-DIFFERENCE OPTION, MIXELM=0) 
 = 0.1349    (WHEN MIN. R.F.=1)  AT K=   3, I=   2, J=  31


 TOTAL NUMBER OF POINT SOURCES/SINKS PRESENT IN THE FLOW MODEL =   240

 MAXIMUM STEPSIZE WHICH MEETS STABILITY CRITERION OF THE SINK & SOURCE TERM
 = 0.1000E+31(WHEN MIN. R.F.=1)  AT K=   0, I=   0, J=   0

 MAXIMUM STEPSIZE WHICH MEETS STABILITY CRITERION OF THE DISPERSION TERM
 = 0.7293E-02(WHEN MIN. R.F.=1)  AT K=   3, I=   2, J=  30
     1 CALLS TO GCG PACKAGE FOR TRANSPORT TIME STEP   3 IN FLOW TIME STEP  17 STRESS PERIOD   2
    19 TOTAL ITERATIONS
0WARNING: NUMERICAL OSCILLATION ENCOUNTERED
 ONE OR MORE CELL CONCENTRATIONS LESS THAN CRHOREF
 SMALLEST DENSITY =  0.100E+04
 AT CELL (I,J,K) = (   3,  57,  26)

 
 SOLVING FOR HEAD 
 FLOW MODEL IS TRANSIENT
 FLOW MODEL CONTAINS CONSTANT-HEAD CELLS


 MAXIMUM STEPSIZE DURING WHICH ANY PARTICLE CANNOT MOVE MORE THAN ONE CELL
 = 0.1701    (WHEN MIN. R.F.=1)  AT K=   3, I=   2, J=  30

 MAXIMUM STEPSIZE WHICH MEETS STABILITY CRITERION OF THE ADVECTION TERM
 (FOR PURE FINITE-DIFFERENCE OPTION, MIXELM=0) 
 = 0.1349    (WHEN MIN. R.F.=1)  AT K=   3, I=   2, J=  31


 TOTAL NUMBER OF POINT SOURCES/SINKS PRESENT IN THE FLOW MODEL =   240

 MAXIMUM STEPSIZE WHICH MEETS STABILITY CRITERION OF THE SINK & SOURCE TERM
 = 0.1000E+31(WHEN MIN. R.F.=1)  AT K=   0, I=   0, J=   0

 MAXIMUM STEPSIZE WHICH MEETS STABILITY CRITERION OF THE DISPERSION TERM
 = 0.7293E-02(WHEN MIN. R.F.=1)  AT K=   3, I=   2, J=  30
     1 CALLS TO GCG PACKAGE FOR TRANSPORT TIME STEP   4 IN FLOW TIME STEP  17 STRESS PERIOD   2
    18 TOTAL ITERATIONS
0WARNING: NUMERICAL OSCILLATION ENCOUNTERED
 ONE OR MORE CELL CONCENTRATIONS LESS THAN CRHOREF
 SMALLEST DENSITY =  0.100E+04
 AT CELL (I,J,K) = (   3,  57,  26)

 
 SOLVING FOR HEAD 
 FLOW MODEL IS TRANSIENT
 FLOW MODEL CONTAINS CONSTANT-HEAD CELLS


 MAXIMUM STEPSIZE DURING WHICH ANY PARTICLE CANNOT MOVE MORE THAN ONE CELL
 = 0.1701    (WHEN MIN. R.F.=1)  AT K=   3, I=   2, J=  30

 MAXIMUM STEPSIZE WHICH MEETS STABILITY CRITERION OF THE ADVECTION TERM
 (FOR PURE FINITE-DIFFERENCE OPTION, MIXELM=0) 
 = 0.1349    (WHEN MIN. R.F.=1)  AT K=   3, I=   2, J=  31


 TOTAL NUMBER OF POINT SOURCES/SINKS PRESENT IN THE FLOW MODEL =   240

 MAXIMUM STEPSIZE WHICH MEETS STABILITY CRITERION OF THE SINK & SOURCE TERM
 = 0.1000E+31(WHEN MIN. R.F.=1)  AT K=   0, I=   0, J=   0

 MAXIMUM STEPSIZE WHICH MEETS STABILITY CRITERION OF THE DISPERSION TERM
 = 0.7292E-02(WHEN MIN. R.F.=1)  AT K=   3, I=   2, J=  30
     1 CALLS TO GCG PACKAGE FOR TRANSPORT TIME STEP   5 IN FLOW TIME STEP  17 STRESS PERIOD   2
    18 TOTAL ITERATIONS
0WARNING: NUMERICAL OSCILLATION ENCOUNTERED
 ONE OR MORE CELL CONCENTRATIONS LESS THAN CRHOREF
 SMALLEST DENSITY =  0.100E+04
 AT CELL (I,J,K) = (   3,  57,  26)

 
 SOLVING FOR HEAD 
 FLOW MODEL IS TRANSIENT
 FLOW MODEL CONTAINS CONSTANT-HEAD CELLS


 MAXIMUM STEPSIZE DURING WHICH ANY PARTICLE CANNOT MOVE MORE THAN ONE CELL
 = 0.1701    (WHEN MIN. R.F.=1)  AT K=   3, I=   2, J=  30

 MAXIMUM STEPSIZE WHICH MEETS STABILITY CRITERION OF THE ADVECTION TERM
 (FOR PURE FINITE-DIFFERENCE OPTION, MIXELM=0) 
 = 0.1349    (WHEN MIN. R.F.=1)  AT K=   3, I=   2, J=  31


 TOTAL NUMBER OF POINT SOURCES/SINKS PRESENT IN THE FLOW MODEL =   240

 MAXIMUM STEPSIZE WHICH MEETS STABILITY CRITERION OF THE SINK & SOURCE TERM
 = 0.1000E+31(WHEN MIN. R.F.=1)  AT K=   0, I=   0, J=   0

 MAXIMUM STEPSIZE WHICH MEETS STABILITY CRITERION OF THE DISPERSION TERM
 = 0.7292E-02(WHEN MIN. R.F.=1)  AT K=   3, I=   2, J=  30
     1 CALLS TO GCG PACKAGE FOR TRANSPORT TIME STEP   6 IN FLOW TIME STEP  17 STRESS PERIOD   2
    18 TOTAL ITERATIONS
0WARNING: NUMERICAL OSCILLATION ENCOUNTERED
 ONE OR MORE CELL CONCENTRATIONS LESS THAN CRHOREF
 SMALLEST DENSITY =  0.100E+04
 AT CELL (I,J,K) = (   3,  57,  26)

 
 SOLVING FOR HEAD 
 FLOW MODEL IS TRANSIENT
 FLOW MODEL CONTAINS CONSTANT-HEAD CELLS


 MAXIMUM STEPSIZE DURING WHICH ANY PARTICLE CANNOT MOVE MORE THAN ONE CELL
 = 0.1701    (WHEN MIN. R.F.=1)  AT K=   3, I=   2, J=  30

 MAXIMUM STEPSIZE WHICH MEETS STABILITY CRITERION OF THE ADVECTION TERM
 (FOR PURE FINITE-DIFFERENCE OPTION, MIXELM=0) 
 = 0.1349    (WHEN MIN. R.F.=1)  AT K=   3, I=   2, J=  31


 TOTAL NUMBER OF POINT SOURCES/SINKS PRESENT IN THE FLOW MODEL =   240

 MAXIMUM STEPSIZE WHICH MEETS STABILITY CRITERION OF THE SINK & SOURCE TERM
 = 0.1000E+31(WHEN MIN. R.F.=1)  AT K=   0, I=   0, J=   0

 MAXIMUM STEPSIZE WHICH MEETS STABILITY CRITERION OF THE DISPERSION TERM
 = 0.7292E-02(WHEN MIN. R.F.=1)  AT K=   3, I=   2, J=  30
     1 CALLS TO GCG PACKAGE FOR TRANSPORT TIME STEP   7 IN FLOW TIME STEP  17 STRESS PERIOD   2
    18 TOTAL ITERATIONS
0WARNING: NUMERICAL OSCILLATION ENCOUNTERED
 ONE OR MORE CELL CONCENTRATIONS LESS THAN CRHOREF
 SMALLEST DENSITY =  0.100E+04
 AT CELL (I,J,K) = (   3,  57,  26)

 
 SOLVING FOR HEAD 
 FLOW MODEL IS TRANSIENT
 FLOW MODEL CONTAINS CONSTANT-HEAD CELLS


 MAXIMUM STEPSIZE DURING WHICH ANY PARTICLE CANNOT MOVE MORE THAN ONE CELL
 = 0.1701    (WHEN MIN. R.F.=1)  AT K=   3, I=   2, J=  30

 MAXIMUM STEPSIZE WHICH MEETS STABILITY CRITERION OF THE ADVECTION TERM
 (FOR PURE FINITE-DIFFERENCE OPTION, MIXELM=0) 
 = 0.1349    (WHEN MIN. R.F.=1)  AT K=   3, I=   2, J=  31


 TOTAL NUMBER OF POINT SOURCES/SINKS PRESENT IN THE FLOW MODEL =   240

 MAXIMUM STEPSIZE WHICH MEETS STABILITY CRITERION OF THE SINK & SOURCE TERM
 = 0.1000E+31(WHEN MIN. R.F.=1)  AT K=   0, I=   0, J=   0

 MAXIMUM STEPSIZE WHICH MEETS STABILITY CRITERION OF THE DISPERSION TERM
 = 0.7292E-02(WHEN MIN. R.F.=1)  AT K=   3, I=   2, J=  30
     1 CALLS TO GCG PACKAGE FOR TRANSPORT TIME STEP   8 IN FLOW TIME STEP  17 STRESS PERIOD   2
    17 TOTAL ITERATIONS
  MAXIMUM CONCENTRATION CHANGES FOR EACH ITERATION:
  MAX. CHANGE LAYER,ROW,COL MAX. CHANGE LAYER,ROW,COL MAX. CHANGE LAYER,ROW,COL MAX. CHANGE LAYER,ROW,COL MAX. CHANGE LAYER,ROW,COL
 ------------------------------------------------------------------------------------------------------------------------------------
   0.3089E-02 ( 13,  1, 48)  0.6288E-03 (  6,  1, 51)  0.2346E-03 (  9,  1, 57)  0.1062E-03 (  5,  2, 53)  0.6104E-04 (  6,  1, 40)
   0.3658E-04 (  3,  2, 31)  0.2268E-04 (  4,  2, 31)  0.1540E-04 (  3,  2, 29)  0.9471E-05 (  3,  2, 32)  0.5315E-05 (  3,  2, 29)
   0.2871E-05 (  4,  3, 33)  0.1604E-05 (  3,  2, 31)  0.9375E-06 (  4,  3, 31)  0.5413E-06 (  3,  3, 31)  0.2692E-06 (  3,  2, 29)
   0.1167E-06 (  3,  1, 34)  0.7716E-07 (  4,  1, 34)
0WARNING: NUMERICAL OSCILLATION ENCOUNTERED
 ONE OR MORE CELL CONCENTRATIONS LESS THAN CRHOREF
 SMALLEST DENSITY =  0.100E+04
 AT CELL (I,J,K) = (   3,  57,  26)



                                          ================================================
                                                         FROM TIME =   18.000     TO    19.000    

 
 SOLVING FOR HEAD 
 FLOW MODEL IS TRANSIENT
 FLOW MODEL CONTAINS CONSTANT-HEAD CELLS


 MAXIMUM STEPSIZE DURING WHICH ANY PARTICLE CANNOT MOVE MORE THAN ONE CELL
 = 0.1701    (WHEN MIN. R.F.=1)  AT K=   3, I=   2, J=  30

 MAXIMUM STEPSIZE WHICH MEETS STABILITY CRITERION OF THE ADVECTION TERM
 (FOR PURE FINITE-DIFFERENCE OPTION, MIXELM=0) 
 = 0.1349    (WHEN MIN. R.F.=1)  AT K=   3, I=   2, J=  31


 TOTAL NUMBER OF POINT SOURCES/SINKS PRESENT IN THE FLOW MODEL =   240

 MAXIMUM STEPSIZE WHICH MEETS STABILITY CRITERION OF THE SINK & SOURCE TERM
 = 0.1000E+31(WHEN MIN. R.F.=1)  AT K=   0, I=   0, J=   0

 MAXIMUM STEPSIZE WHICH MEETS STABILITY CRITERION OF THE DISPERSION TERM
 = 0.7292E-02(WHEN MIN. R.F.=1)  AT K=   3, I=   2, J=  30


     1 CALLS TO GCG PACKAGE FOR TRANSPORT TIME STEP   1 IN FLOW TIME STEP  18 STRESS PERIOD   2
    18 TOTAL ITERATIONS

 NO OUTPUT CONTROL FOR STRESS PERIOD    2   TIME STEP  18
0WARNING: NUMERICAL OSCILLATION ENCOUNTERED
 ONE OR MORE CELL CONCENTRATIONS LESS THAN CRHOREF
 SMALLEST DENSITY =  0.100E+04
 AT CELL (I,J,K) = (   3,  57,  26)

 
 SOLVING FOR HEAD 
 FLOW MODEL IS TRANSIENT
 FLOW MODEL CONTAINS CONSTANT-HEAD CELLS


 MAXIMUM STEPSIZE DURING WHICH ANY PARTICLE CANNOT MOVE MORE THAN ONE CELL
 = 0.1701    (WHEN MIN. R.F.=1)  AT K=   3, I=   2, J=  30

 MAXIMUM STEPSIZE WHICH MEETS STABILITY CRITERION OF THE ADVECTION TERM
 (FOR PURE FINITE-DIFFERENCE OPTION, MIXELM=0) 
 = 0.1349    (WHEN MIN. R.F.=1)  AT K=   3, I=   2, J=  31


 TOTAL NUMBER OF POINT SOURCES/SINKS PRESENT IN THE FLOW MODEL =   240

 MAXIMUM STEPSIZE WHICH MEETS STABILITY CRITERION OF THE SINK & SOURCE TERM
 = 0.1000E+31(WHEN MIN. R.F.=1)  AT K=   0, I=   0, J=   0

 MAXIMUM STEPSIZE WHICH MEETS STABILITY CRITERION OF THE DISPERSION TERM
 = 0.7292E-02(WHEN MIN. R.F.=1)  AT K=   3, I=   2, J=  30
     1 CALLS TO GCG PACKAGE FOR TRANSPORT TIME STEP   2 IN FLOW TIME STEP  18 STRESS PERIOD   2
    18 TOTAL ITERATIONS
0WARNING: NUMERICAL OSCILLATION ENCOUNTERED
 ONE OR MORE CELL CONCENTRATIONS LESS THAN CRHOREF
 SMALLEST DENSITY =  0.100E+04
 AT CELL (I,J,K) = (   3,  58,  26)

 
 SOLVING FOR HEAD 
 FLOW MODEL IS TRANSIENT
 FLOW MODEL CONTAINS CONSTANT-HEAD CELLS


 MAXIMUM STEPSIZE DURING WHICH ANY PARTICLE CANNOT MOVE MORE THAN ONE CELL
 = 0.1701    (WHEN MIN. R.F.=1)  AT K=   3, I=   2, J=  30

 MAXIMUM STEPSIZE WHICH MEETS STABILITY CRITERION OF THE ADVECTION TERM
 (FOR PURE FINITE-DIFFERENCE OPTION, MIXELM=0) 
 = 0.1349    (WHEN MIN. R.F.=1)  AT K=   3, I=   2, J=  31


 TOTAL NUMBER OF POINT SOURCES/SINKS PRESENT IN THE FLOW MODEL =   240

 MAXIMUM STEPSIZE WHICH MEETS STABILITY CRITERION OF THE SINK & SOURCE TERM
 = 0.1000E+31(WHEN MIN. R.F.=1)  AT K=   0, I=   0, J=   0

 MAXIMUM STEPSIZE WHICH MEETS STABILITY CRITERION OF THE DISPERSION TERM
 = 0.7292E-02(WHEN MIN. R.F.=1)  AT K=   3, I=   2, J=  30
     1 CALLS TO GCG PACKAGE FOR TRANSPORT TIME STEP   3 IN FLOW TIME STEP  18 STRESS PERIOD   2
    18 TOTAL ITERATIONS
0WARNING: NUMERICAL OSCILLATION ENCOUNTERED
 ONE OR MORE CELL CONCENTRATIONS LESS THAN CRHOREF
 SMALLEST DENSITY =  0.100E+04
 AT CELL (I,J,K) = (   3,  58,  26)

 
 SOLVING FOR HEAD 
 FLOW MODEL IS TRANSIENT
 FLOW MODEL CONTAINS CONSTANT-HEAD CELLS


 MAXIMUM STEPSIZE DURING WHICH ANY PARTICLE CANNOT MOVE MORE THAN ONE CELL
 = 0.1701    (WHEN MIN. R.F.=1)  AT K=   3, I=   2, J=  30

 MAXIMUM STEPSIZE WHICH MEETS STABILITY CRITERION OF THE ADVECTION TERM
 (FOR PURE FINITE-DIFFERENCE OPTION, MIXELM=0) 
 = 0.1349    (WHEN MIN. R.F.=1)  AT K=   3, I=   2, J=  31


 TOTAL NUMBER OF POINT SOURCES/SINKS PRESENT IN THE FLOW MODEL =   240

 MAXIMUM STEPSIZE WHICH MEETS STABILITY CRITERION OF THE SINK & SOURCE TERM
 = 0.1000E+31(WHEN MIN. R.F.=1)  AT K=   0, I=   0, J=   0

 MAXIMUM STEPSIZE WHICH MEETS STABILITY CRITERION OF THE DISPERSION TERM
 = 0.7292E-02(WHEN MIN. R.F.=1)  AT K=   3, I=   2, J=  30
     1 CALLS TO GCG PACKAGE FOR TRANSPORT TIME STEP   4 IN FLOW TIME STEP  18 STRESS PERIOD   2
    18 TOTAL ITERATIONS
0WARNING: NUMERICAL OSCILLATION ENCOUNTERED
 ONE OR MORE CELL CONCENTRATIONS LESS THAN CRHOREF
 SMALLEST DENSITY =  0.100E+04
 AT CELL (I,J,K) = (   3,  58,  26)

 
 SOLVING FOR HEAD 
 FLOW MODEL IS TRANSIENT
 FLOW MODEL CONTAINS CONSTANT-HEAD CELLS


 MAXIMUM STEPSIZE DURING WHICH ANY PARTICLE CANNOT MOVE MORE THAN ONE CELL
 = 0.1701    (WHEN MIN. R.F.=1)  AT K=   3, I=   2, J=  30

 MAXIMUM STEPSIZE WHICH MEETS STABILITY CRITERION OF THE ADVECTION TERM
 (FOR PURE FINITE-DIFFERENCE OPTION, MIXELM=0) 
 = 0.1349    (WHEN MIN. R.F.=1)  AT K=   3, I=   2, J=  31


 TOTAL NUMBER OF POINT SOURCES/SINKS PRESENT IN THE FLOW MODEL =   240

 MAXIMUM STEPSIZE WHICH MEETS STABILITY CRITERION OF THE SINK & SOURCE TERM
 = 0.1000E+31(WHEN MIN. R.F.=1)  AT K=   0, I=   0, J=   0

 MAXIMUM STEPSIZE WHICH MEETS STABILITY CRITERION OF THE DISPERSION TERM
 = 0.7292E-02(WHEN MIN. R.F.=1)  AT K=   3, I=   2, J=  30
     1 CALLS TO GCG PACKAGE FOR TRANSPORT TIME STEP   5 IN FLOW TIME STEP  18 STRESS PERIOD   2
    18 TOTAL ITERATIONS
0WARNING: NUMERICAL OSCILLATION ENCOUNTERED
 ONE OR MORE CELL CONCENTRATIONS LESS THAN CRHOREF
 SMALLEST DENSITY =  0.100E+04
 AT CELL (I,J,K) = (   3,  58,  26)

 
 SOLVING FOR HEAD 
 FLOW MODEL IS TRANSIENT
 FLOW MODEL CONTAINS CONSTANT-HEAD CELLS


 MAXIMUM STEPSIZE DURING WHICH ANY PARTICLE CANNOT MOVE MORE THAN ONE CELL
 = 0.1701    (WHEN MIN. R.F.=1)  AT K=   3, I=   2, J=  30

 MAXIMUM STEPSIZE WHICH MEETS STABILITY CRITERION OF THE ADVECTION TERM
 (FOR PURE FINITE-DIFFERENCE OPTION, MIXELM=0) 
 = 0.1349    (WHEN MIN. R.F.=1)  AT K=   3, I=   2, J=  31


 TOTAL NUMBER OF POINT SOURCES/SINKS PRESENT IN THE FLOW MODEL =   240

 MAXIMUM STEPSIZE WHICH MEETS STABILITY CRITERION OF THE SINK & SOURCE TERM
 = 0.1000E+31(WHEN MIN. R.F.=1)  AT K=   0, I=   0, J=   0

 MAXIMUM STEPSIZE WHICH MEETS STABILITY CRITERION OF THE DISPERSION TERM
 = 0.7292E-02(WHEN MIN. R.F.=1)  AT K=   3, I=   2, J=  30
     1 CALLS TO GCG PACKAGE FOR TRANSPORT TIME STEP   6 IN FLOW TIME STEP  18 STRESS PERIOD   2
    18 TOTAL ITERATIONS
0WARNING: NUMERICAL OSCILLATION ENCOUNTERED
 ONE OR MORE CELL CONCENTRATIONS LESS THAN CRHOREF
 SMALLEST DENSITY =  0.100E+04
 AT CELL (I,J,K) = (   3,  58,  26)

 
 SOLVING FOR HEAD 
 FLOW MODEL IS TRANSIENT
 FLOW MODEL CONTAINS CONSTANT-HEAD CELLS


 MAXIMUM STEPSIZE DURING WHICH ANY PARTICLE CANNOT MOVE MORE THAN ONE CELL
 = 0.1701    (WHEN MIN. R.F.=1)  AT K=   3, I=   2, J=  30

 MAXIMUM STEPSIZE WHICH MEETS STABILITY CRITERION OF THE ADVECTION TERM
 (FOR PURE FINITE-DIFFERENCE OPTION, MIXELM=0) 
 = 0.1349    (WHEN MIN. R.F.=1)  AT K=   3, I=   2, J=  31


 TOTAL NUMBER OF POINT SOURCES/SINKS PRESENT IN THE FLOW MODEL =   240

 MAXIMUM STEPSIZE WHICH MEETS STABILITY CRITERION OF THE SINK & SOURCE TERM
 = 0.1000E+31(WHEN MIN. R.F.=1)  AT K=   0, I=   0, J=   0

 MAXIMUM STEPSIZE WHICH MEETS STABILITY CRITERION OF THE DISPERSION TERM
 = 0.7292E-02(WHEN MIN. R.F.=1)  AT K=   3, I=   2, J=  30
     1 CALLS TO GCG PACKAGE FOR TRANSPORT TIME STEP   7 IN FLOW TIME STEP  18 STRESS PERIOD   2
    18 TOTAL ITERATIONS
0WARNING: NUMERICAL OSCILLATION ENCOUNTERED
 ONE OR MORE CELL CONCENTRATIONS LESS THAN CRHOREF
 SMALLEST DENSITY =  0.100E+04
 AT CELL (I,J,K) = (   3,  58,  26)

 
 SOLVING FOR HEAD 
 FLOW MODEL IS TRANSIENT
 FLOW MODEL CONTAINS CONSTANT-HEAD CELLS


 MAXIMUM STEPSIZE DURING WHICH ANY PARTICLE CANNOT MOVE MORE THAN ONE CELL
 = 0.1701    (WHEN MIN. R.F.=1)  AT K=   3, I=   2, J=  30

 MAXIMUM STEPSIZE WHICH MEETS STABILITY CRITERION OF THE ADVECTION TERM
 (FOR PURE FINITE-DIFFERENCE OPTION, MIXELM=0) 
 = 0.1349    (WHEN MIN. R.F.=1)  AT K=   3, I=   2, J=  31


 TOTAL NUMBER OF POINT SOURCES/SINKS PRESENT IN THE FLOW MODEL =   240

 MAXIMUM STEPSIZE WHICH MEETS STABILITY CRITERION OF THE SINK & SOURCE TERM
 = 0.1000E+31(WHEN MIN. R.F.=1)  AT K=   0, I=   0, J=   0

 MAXIMUM STEPSIZE WHICH MEETS STABILITY CRITERION OF THE DISPERSION TERM
 = 0.7292E-02(WHEN MIN. R.F.=1)  AT K=   3, I=   2, J=  30
     1 CALLS TO GCG PACKAGE FOR TRANSPORT TIME STEP   8 IN FLOW TIME STEP  18 STRESS PERIOD   2
    17 TOTAL ITERATIONS
  MAXIMUM CONCENTRATION CHANGES FOR EACH ITERATION:
  MAX. CHANGE LAYER,ROW,COL MAX. CHANGE LAYER,ROW,COL MAX. CHANGE LAYER,ROW,COL MAX. CHANGE LAYER,ROW,COL MAX. CHANGE LAYER,ROW,COL
 ------------------------------------------------------------------------------------------------------------------------------------
   0.2971E-02 ( 13,  1, 48)  0.5676E-03 (  6,  1, 51)  0.2190E-03 (  9,  1, 57)  0.9731E-04 (  5,  2, 53)  0.5481E-04 (  6,  1, 40)
   0.3312E-04 (  3,  2, 31)  0.2052E-04 (  4,  2, 31)  0.1401E-04 (  3,  2, 29)  0.8583E-05 (  3,  2, 32)  0.4843E-05 (  3,  2, 29)
   0.2596E-05 (  4,  3, 33)  0.1453E-05 (  3,  2, 31)  0.8525E-06 (  4,  3, 31)  0.4921E-06 (  3,  3, 31)  0.2458E-06 (  3,  2, 29)
   0.1052E-06 (  3,  1, 34)  0.6974E-07 (  4,  1, 34)
0WARNING: NUMERICAL OSCILLATION ENCOUNTERED
 ONE OR MORE CELL CONCENTRATIONS LESS THAN CRHOREF
 SMALLEST DENSITY =  0.100E+04
 AT CELL (I,J,K) = (   3,  58,  26)



                                          ================================================
                                                         FROM TIME =   19.000     TO    20.000    

 
 SOLVING FOR HEAD 
 FLOW MODEL IS TRANSIENT
 FLOW MODEL CONTAINS CONSTANT-HEAD CELLS


 MAXIMUM STEPSIZE DURING WHICH ANY PARTICLE CANNOT MOVE MORE THAN ONE CELL
 = 0.1701    (WHEN MIN. R.F.=1)  AT K=   3, I=   2, J=  30

 MAXIMUM STEPSIZE WHICH MEETS STABILITY CRITERION OF THE ADVECTION TERM
 (FOR PURE FINITE-DIFFERENCE OPTION, MIXELM=0) 
 = 0.1349    (WHEN MIN. R.F.=1)  AT K=   3, I=   2, J=  31


 TOTAL NUMBER OF POINT SOURCES/SINKS PRESENT IN THE FLOW MODEL =   240

 MAXIMUM STEPSIZE WHICH MEETS STABILITY CRITERION OF THE SINK & SOURCE TERM
 = 0.1000E+31(WHEN MIN. R.F.=1)  AT K=   0, I=   0, J=   0

 MAXIMUM STEPSIZE WHICH MEETS STABILITY CRITERION OF THE DISPERSION TERM
 = 0.7292E-02(WHEN MIN. R.F.=1)  AT K=   3, I=   2, J=  30


     1 CALLS TO GCG PACKAGE FOR TRANSPORT TIME STEP   1 IN FLOW TIME STEP  19 STRESS PERIOD   2
    18 TOTAL ITERATIONS

 NO OUTPUT CONTROL FOR STRESS PERIOD    2   TIME STEP  19
0WARNING: NUMERICAL OSCILLATION ENCOUNTERED
 ONE OR MORE CELL CONCENTRATIONS LESS THAN CRHOREF
 SMALLEST DENSITY =  0.100E+04
 AT CELL (I,J,K) = (   3,  58,  26)

 
 SOLVING FOR HEAD 
 FLOW MODEL IS TRANSIENT
 FLOW MODEL CONTAINS CONSTANT-HEAD CELLS


 MAXIMUM STEPSIZE DURING WHICH ANY PARTICLE CANNOT MOVE MORE THAN ONE CELL
 = 0.1701    (WHEN MIN. R.F.=1)  AT K=   3, I=   2, J=  30

 MAXIMUM STEPSIZE WHICH MEETS STABILITY CRITERION OF THE ADVECTION TERM
 (FOR PURE FINITE-DIFFERENCE OPTION, MIXELM=0) 
 = 0.1349    (WHEN MIN. R.F.=1)  AT K=   3, I=   2, J=  31


 TOTAL NUMBER OF POINT SOURCES/SINKS PRESENT IN THE FLOW MODEL =   240

 MAXIMUM STEPSIZE WHICH MEETS STABILITY CRITERION OF THE SINK & SOURCE TERM
 = 0.1000E+31(WHEN MIN. R.F.=1)  AT K=   0, I=   0, J=   0

 MAXIMUM STEPSIZE WHICH MEETS STABILITY CRITERION OF THE DISPERSION TERM
 = 0.7292E-02(WHEN MIN. R.F.=1)  AT K=   3, I=   2, J=  30
     1 CALLS TO GCG PACKAGE FOR TRANSPORT TIME STEP   2 IN FLOW TIME STEP  19 STRESS PERIOD   2
    18 TOTAL ITERATIONS
0WARNING: NUMERICAL OSCILLATION ENCOUNTERED
 ONE OR MORE CELL CONCENTRATIONS LESS THAN CRHOREF
 SMALLEST DENSITY =  0.100E+04
 AT CELL (I,J,K) = (   3,  58,  26)

 
 SOLVING FOR HEAD 
 FLOW MODEL IS TRANSIENT
 FLOW MODEL CONTAINS CONSTANT-HEAD CELLS


 MAXIMUM STEPSIZE DURING WHICH ANY PARTICLE CANNOT MOVE MORE THAN ONE CELL
 = 0.1701    (WHEN MIN. R.F.=1)  AT K=   3, I=   2, J=  30

 MAXIMUM STEPSIZE WHICH MEETS STABILITY CRITERION OF THE ADVECTION TERM
 (FOR PURE FINITE-DIFFERENCE OPTION, MIXELM=0) 
 = 0.1349    (WHEN MIN. R.F.=1)  AT K=   3, I=   2, J=  31


 TOTAL NUMBER OF POINT SOURCES/SINKS PRESENT IN THE FLOW MODEL =   240

 MAXIMUM STEPSIZE WHICH MEETS STABILITY CRITERION OF THE SINK & SOURCE TERM
 = 0.1000E+31(WHEN MIN. R.F.=1)  AT K=   0, I=   0, J=   0

 MAXIMUM STEPSIZE WHICH MEETS STABILITY CRITERION OF THE DISPERSION TERM
 = 0.7291E-02(WHEN MIN. R.F.=1)  AT K=   3, I=   2, J=  30
     1 CALLS TO GCG PACKAGE FOR TRANSPORT TIME STEP   3 IN FLOW TIME STEP  19 STRESS PERIOD   2
    18 TOTAL ITERATIONS
0WARNING: NUMERICAL OSCILLATION ENCOUNTERED
 ONE OR MORE CELL CONCENTRATIONS LESS THAN CRHOREF
 SMALLEST DENSITY =  0.100E+04
 AT CELL (I,J,K) = (   3,  59,  26)

 
 SOLVING FOR HEAD 
 FLOW MODEL IS TRANSIENT
 FLOW MODEL CONTAINS CONSTANT-HEAD CELLS


 MAXIMUM STEPSIZE DURING WHICH ANY PARTICLE CANNOT MOVE MORE THAN ONE CELL
 = 0.1701    (WHEN MIN. R.F.=1)  AT K=   3, I=   2, J=  30

 MAXIMUM STEPSIZE WHICH MEETS STABILITY CRITERION OF THE ADVECTION TERM
 (FOR PURE FINITE-DIFFERENCE OPTION, MIXELM=0) 
 = 0.1349    (WHEN MIN. R.F.=1)  AT K=   3, I=   2, J=  31


 TOTAL NUMBER OF POINT SOURCES/SINKS PRESENT IN THE FLOW MODEL =   240

 MAXIMUM STEPSIZE WHICH MEETS STABILITY CRITERION OF THE SINK & SOURCE TERM
 = 0.1000E+31(WHEN MIN. R.F.=1)  AT K=   0, I=   0, J=   0

 MAXIMUM STEPSIZE WHICH MEETS STABILITY CRITERION OF THE DISPERSION TERM
 = 0.7291E-02(WHEN MIN. R.F.=1)  AT K=   3, I=   2, J=  30
     1 CALLS TO GCG PACKAGE FOR TRANSPORT TIME STEP   4 IN FLOW TIME STEP  19 STRESS PERIOD   2
    18 TOTAL ITERATIONS
0WARNING: NUMERICAL OSCILLATION ENCOUNTERED
 ONE OR MORE CELL CONCENTRATIONS LESS THAN CRHOREF
 SMALLEST DENSITY =  0.100E+04
 AT CELL (I,J,K) = (   3,  59,  26)

 
 SOLVING FOR HEAD 
 FLOW MODEL IS TRANSIENT
 FLOW MODEL CONTAINS CONSTANT-HEAD CELLS


 MAXIMUM STEPSIZE DURING WHICH ANY PARTICLE CANNOT MOVE MORE THAN ONE CELL
 = 0.1701    (WHEN MIN. R.F.=1)  AT K=   3, I=   2, J=  30

 MAXIMUM STEPSIZE WHICH MEETS STABILITY CRITERION OF THE ADVECTION TERM
 (FOR PURE FINITE-DIFFERENCE OPTION, MIXELM=0) 
 = 0.1349    (WHEN MIN. R.F.=1)  AT K=   3, I=   2, J=  31


 TOTAL NUMBER OF POINT SOURCES/SINKS PRESENT IN THE FLOW MODEL =   240

 MAXIMUM STEPSIZE WHICH MEETS STABILITY CRITERION OF THE SINK & SOURCE TERM
 = 0.1000E+31(WHEN MIN. R.F.=1)  AT K=   0, I=   0, J=   0

 MAXIMUM STEPSIZE WHICH MEETS STABILITY CRITERION OF THE DISPERSION TERM
 = 0.7291E-02(WHEN MIN. R.F.=1)  AT K=   3, I=   2, J=  30
     1 CALLS TO GCG PACKAGE FOR TRANSPORT TIME STEP   5 IN FLOW TIME STEP  19 STRESS PERIOD   2
    18 TOTAL ITERATIONS
0WARNING: NUMERICAL OSCILLATION ENCOUNTERED
 ONE OR MORE CELL CONCENTRATIONS LESS THAN CRHOREF
 SMALLEST DENSITY =  0.100E+04
 AT CELL (I,J,K) = (   3,  59,  26)

 
 SOLVING FOR HEAD 
 FLOW MODEL IS TRANSIENT
 FLOW MODEL CONTAINS CONSTANT-HEAD CELLS


 MAXIMUM STEPSIZE DURING WHICH ANY PARTICLE CANNOT MOVE MORE THAN ONE CELL
 = 0.1701    (WHEN MIN. R.F.=1)  AT K=   3, I=   2, J=  30

 MAXIMUM STEPSIZE WHICH MEETS STABILITY CRITERION OF THE ADVECTION TERM
 (FOR PURE FINITE-DIFFERENCE OPTION, MIXELM=0) 
 = 0.1349    (WHEN MIN. R.F.=1)  AT K=   3, I=   2, J=  31


 TOTAL NUMBER OF POINT SOURCES/SINKS PRESENT IN THE FLOW MODEL =   240

 MAXIMUM STEPSIZE WHICH MEETS STABILITY CRITERION OF THE SINK & SOURCE TERM
 = 0.1000E+31(WHEN MIN. R.F.=1)  AT K=   0, I=   0, J=   0

 MAXIMUM STEPSIZE WHICH MEETS STABILITY CRITERION OF THE DISPERSION TERM
 = 0.7291E-02(WHEN MIN. R.F.=1)  AT K=   3, I=   2, J=  30
     1 CALLS TO GCG PACKAGE FOR TRANSPORT TIME STEP   6 IN FLOW TIME STEP  19 STRESS PERIOD   2
    18 TOTAL ITERATIONS
0WARNING: NUMERICAL OSCILLATION ENCOUNTERED
 ONE OR MORE CELL CONCENTRATIONS LESS THAN CRHOREF
 SMALLEST DENSITY =  0.100E+04
 AT CELL (I,J,K) = (   3,  59,  26)

 
 SOLVING FOR HEAD 
 FLOW MODEL IS TRANSIENT
 FLOW MODEL CONTAINS CONSTANT-HEAD CELLS


 MAXIMUM STEPSIZE DURING WHICH ANY PARTICLE CANNOT MOVE MORE THAN ONE CELL
 = 0.1701    (WHEN MIN. R.F.=1)  AT K=   3, I=   2, J=  30

 MAXIMUM STEPSIZE WHICH MEETS STABILITY CRITERION OF THE ADVECTION TERM
 (FOR PURE FINITE-DIFFERENCE OPTION, MIXELM=0) 
 = 0.1349    (WHEN MIN. R.F.=1)  AT K=   3, I=   2, J=  31


 TOTAL NUMBER OF POINT SOURCES/SINKS PRESENT IN THE FLOW MODEL =   240

 MAXIMUM STEPSIZE WHICH MEETS STABILITY CRITERION OF THE SINK & SOURCE TERM
 = 0.1000E+31(WHEN MIN. R.F.=1)  AT K=   0, I=   0, J=   0

 MAXIMUM STEPSIZE WHICH MEETS STABILITY CRITERION OF THE DISPERSION TERM
 = 0.7291E-02(WHEN MIN. R.F.=1)  AT K=   3, I=   2, J=  30
     1 CALLS TO GCG PACKAGE FOR TRANSPORT TIME STEP   7 IN FLOW TIME STEP  19 STRESS PERIOD   2
    18 TOTAL ITERATIONS
0WARNING: NUMERICAL OSCILLATION ENCOUNTERED
 ONE OR MORE CELL CONCENTRATIONS LESS THAN CRHOREF
 SMALLEST DENSITY =  0.100E+04
 AT CELL (I,J,K) = (   3,  59,  26)

 
 SOLVING FOR HEAD 
 FLOW MODEL IS TRANSIENT
 FLOW MODEL CONTAINS CONSTANT-HEAD CELLS


 MAXIMUM STEPSIZE DURING WHICH ANY PARTICLE CANNOT MOVE MORE THAN ONE CELL
 = 0.1701    (WHEN MIN. R.F.=1)  AT K=   3, I=   2, J=  30

 MAXIMUM STEPSIZE WHICH MEETS STABILITY CRITERION OF THE ADVECTION TERM
 (FOR PURE FINITE-DIFFERENCE OPTION, MIXELM=0) 
 = 0.1349    (WHEN MIN. R.F.=1)  AT K=   3, I=   2, J=  31


 TOTAL NUMBER OF POINT SOURCES/SINKS PRESENT IN THE FLOW MODEL =   240

 MAXIMUM STEPSIZE WHICH MEETS STABILITY CRITERION OF THE SINK & SOURCE TERM
 = 0.1000E+31(WHEN MIN. R.F.=1)  AT K=   0, I=   0, J=   0

 MAXIMUM STEPSIZE WHICH MEETS STABILITY CRITERION OF THE DISPERSION TERM
 = 0.7291E-02(WHEN MIN. R.F.=1)  AT K=   3, I=   2, J=  30
     1 CALLS TO GCG PACKAGE FOR TRANSPORT TIME STEP   8 IN FLOW TIME STEP  19 STRESS PERIOD   2
    16 TOTAL ITERATIONS
  MAXIMUM CONCENTRATION CHANGES FOR EACH ITERATION:
  MAX. CHANGE LAYER,ROW,COL MAX. CHANGE LAYER,ROW,COL MAX. CHANGE LAYER,ROW,COL MAX. CHANGE LAYER,ROW,COL MAX. CHANGE LAYER,ROW,COL
 ------------------------------------------------------------------------------------------------------------------------------------
   0.2848E-02 ( 13,  1, 48)  0.5195E-03 (  6,  1, 62)  0.2045E-03 (  9,  1, 57)  0.8953E-04 (  5,  2, 53)  0.4937E-04 (  6,  1, 40)
   0.3011E-04 (  3,  2, 31)  0.1864E-04 (  3,  2, 30)  0.1280E-04 (  3,  2, 29)  0.7808E-05 (  3,  2, 32)  0.4428E-05 (  3,  2, 29)
   0.2358E-05 (  4,  3, 33)  0.1322E-05 (  3,  2, 31)  0.7782E-06 (  4,  3, 31)  0.4491E-06 (  3,  3, 31)  0.2253E-06 (  3,  2, 29)
   0.9569E-07 (  4,  1, 34)
0WARNING: NUMERICAL OSCILLATION ENCOUNTERED
 ONE OR MORE CELL CONCENTRATIONS LESS THAN CRHOREF
 SMALLEST DENSITY =  0.100E+04
 AT CELL (I,J,K) = (   3,  59,  26)



                                          ================================================
                                                         FROM TIME =   20.000     TO    21.000    

 
 SOLVING FOR HEAD 
 FLOW MODEL IS TRANSIENT
 FLOW MODEL CONTAINS CONSTANT-HEAD CELLS


 MAXIMUM STEPSIZE DURING WHICH ANY PARTICLE CANNOT MOVE MORE THAN ONE CELL
 = 0.1701    (WHEN MIN. R.F.=1)  AT K=   3, I=   2, J=  30

 MAXIMUM STEPSIZE WHICH MEETS STABILITY CRITERION OF THE ADVECTION TERM
 (FOR PURE FINITE-DIFFERENCE OPTION, MIXELM=0) 
 = 0.1349    (WHEN MIN. R.F.=1)  AT K=   3, I=   2, J=  31


 TOTAL NUMBER OF POINT SOURCES/SINKS PRESENT IN THE FLOW MODEL =   240

 MAXIMUM STEPSIZE WHICH MEETS STABILITY CRITERION OF THE SINK & SOURCE TERM
 = 0.1000E+31(WHEN MIN. R.F.=1)  AT K=   0, I=   0, J=   0

 MAXIMUM STEPSIZE WHICH MEETS STABILITY CRITERION OF THE DISPERSION TERM
 = 0.7291E-02(WHEN MIN. R.F.=1)  AT K=   3, I=   2, J=  30


     1 CALLS TO GCG PACKAGE FOR TRANSPORT TIME STEP   1 IN FLOW TIME STEP  20 STRESS PERIOD   2
    18 TOTAL ITERATIONS

 NO OUTPUT CONTROL FOR STRESS PERIOD    2   TIME STEP  20
0WARNING: NUMERICAL OSCILLATION ENCOUNTERED
 ONE OR MORE CELL CONCENTRATIONS LESS THAN CRHOREF
 SMALLEST DENSITY =  0.100E+04
 AT CELL (I,J,K) = (   3,  59,  26)

 
 SOLVING FOR HEAD 
 FLOW MODEL IS TRANSIENT
 FLOW MODEL CONTAINS CONSTANT-HEAD CELLS


 MAXIMUM STEPSIZE DURING WHICH ANY PARTICLE CANNOT MOVE MORE THAN ONE CELL
 = 0.1701    (WHEN MIN. R.F.=1)  AT K=   3, I=   2, J=  30

 MAXIMUM STEPSIZE WHICH MEETS STABILITY CRITERION OF THE ADVECTION TERM
 (FOR PURE FINITE-DIFFERENCE OPTION, MIXELM=0) 
 = 0.1349    (WHEN MIN. R.F.=1)  AT K=   3, I=   2, J=  31


 TOTAL NUMBER OF POINT SOURCES/SINKS PRESENT IN THE FLOW MODEL =   240

 MAXIMUM STEPSIZE WHICH MEETS STABILITY CRITERION OF THE SINK & SOURCE TERM
 = 0.1000E+31(WHEN MIN. R.F.=1)  AT K=   0, I=   0, J=   0

 MAXIMUM STEPSIZE WHICH MEETS STABILITY CRITERION OF THE DISPERSION TERM
 = 0.7291E-02(WHEN MIN. R.F.=1)  AT K=   3, I=   2, J=  30
     1 CALLS TO GCG PACKAGE FOR TRANSPORT TIME STEP   2 IN FLOW TIME STEP  20 STRESS PERIOD   2
    18 TOTAL ITERATIONS
0WARNING: NUMERICAL OSCILLATION ENCOUNTERED
 ONE OR MORE CELL CONCENTRATIONS LESS THAN CRHOREF
 SMALLEST DENSITY =  0.100E+04
 AT CELL (I,J,K) = (   3,  59,  26)

 
 SOLVING FOR HEAD 
 FLOW MODEL IS TRANSIENT
 FLOW MODEL CONTAINS CONSTANT-HEAD CELLS


 MAXIMUM STEPSIZE DURING WHICH ANY PARTICLE CANNOT MOVE MORE THAN ONE CELL
 = 0.1701    (WHEN MIN. R.F.=1)  AT K=   3, I=   2, J=  30

 MAXIMUM STEPSIZE WHICH MEETS STABILITY CRITERION OF THE ADVECTION TERM
 (FOR PURE FINITE-DIFFERENCE OPTION, MIXELM=0) 
 = 0.1349    (WHEN MIN. R.F.=1)  AT K=   3, I=   2, J=  31


 TOTAL NUMBER OF POINT SOURCES/SINKS PRESENT IN THE FLOW MODEL =   240

 MAXIMUM STEPSIZE WHICH MEETS STABILITY CRITERION OF THE SINK & SOURCE TERM
 = 0.1000E+31(WHEN MIN. R.F.=1)  AT K=   0, I=   0, J=   0

 MAXIMUM STEPSIZE WHICH MEETS STABILITY CRITERION OF THE DISPERSION TERM
 = 0.7291E-02(WHEN MIN. R.F.=1)  AT K=   3, I=   2, J=  30
     1 CALLS TO GCG PACKAGE FOR TRANSPORT TIME STEP   3 IN FLOW TIME STEP  20 STRESS PERIOD   2
    18 TOTAL ITERATIONS
0WARNING: NUMERICAL OSCILLATION ENCOUNTERED
 ONE OR MORE CELL CONCENTRATIONS LESS THAN CRHOREF
 SMALLEST DENSITY =  0.100E+04
 AT CELL (I,J,K) = (   3,  59,  26)

 
 SOLVING FOR HEAD 
 FLOW MODEL IS TRANSIENT
 FLOW MODEL CONTAINS CONSTANT-HEAD CELLS


 MAXIMUM STEPSIZE DURING WHICH ANY PARTICLE CANNOT MOVE MORE THAN ONE CELL
 = 0.1701    (WHEN MIN. R.F.=1)  AT K=   3, I=   2, J=  30

 MAXIMUM STEPSIZE WHICH MEETS STABILITY CRITERION OF THE ADVECTION TERM
 (FOR PURE FINITE-DIFFERENCE OPTION, MIXELM=0) 
 = 0.1349    (WHEN MIN. R.F.=1)  AT K=   3, I=   2, J=  31


 TOTAL NUMBER OF POINT SOURCES/SINKS PRESENT IN THE FLOW MODEL =   240

 MAXIMUM STEPSIZE WHICH MEETS STABILITY CRITERION OF THE SINK & SOURCE TERM
 = 0.1000E+31(WHEN MIN. R.F.=1)  AT K=   0, I=   0, J=   0

 MAXIMUM STEPSIZE WHICH MEETS STABILITY CRITERION OF THE DISPERSION TERM
 = 0.7291E-02(WHEN MIN. R.F.=1)  AT K=   3, I=   2, J=  30
     1 CALLS TO GCG PACKAGE FOR TRANSPORT TIME STEP   4 IN FLOW TIME STEP  20 STRESS PERIOD   2
    18 TOTAL ITERATIONS
0WARNING: NUMERICAL OSCILLATION ENCOUNTERED
 ONE OR MORE CELL CONCENTRATIONS LESS THAN CRHOREF
 SMALLEST DENSITY =  0.100E+04
 AT CELL (I,J,K) = (   2,  60,  26)

 
 SOLVING FOR HEAD 
 FLOW MODEL IS TRANSIENT
 FLOW MODEL CONTAINS CONSTANT-HEAD CELLS


 MAXIMUM STEPSIZE DURING WHICH ANY PARTICLE CANNOT MOVE MORE THAN ONE CELL
 = 0.1701    (WHEN MIN. R.F.=1)  AT K=   3, I=   2, J=  30

 MAXIMUM STEPSIZE WHICH MEETS STABILITY CRITERION OF THE ADVECTION TERM
 (FOR PURE FINITE-DIFFERENCE OPTION, MIXELM=0) 
 = 0.1349    (WHEN MIN. R.F.=1)  AT K=   3, I=   2, J=  31


 TOTAL NUMBER OF POINT SOURCES/SINKS PRESENT IN THE FLOW MODEL =   240

 MAXIMUM STEPSIZE WHICH MEETS STABILITY CRITERION OF THE SINK & SOURCE TERM
 = 0.1000E+31(WHEN MIN. R.F.=1)  AT K=   0, I=   0, J=   0

 MAXIMUM STEPSIZE WHICH MEETS STABILITY CRITERION OF THE DISPERSION TERM
 = 0.7291E-02(WHEN MIN. R.F.=1)  AT K=   3, I=   2, J=  30
     1 CALLS TO GCG PACKAGE FOR TRANSPORT TIME STEP   5 IN FLOW TIME STEP  20 STRESS PERIOD   2
    18 TOTAL ITERATIONS
0WARNING: NUMERICAL OSCILLATION ENCOUNTERED
 ONE OR MORE CELL CONCENTRATIONS LESS THAN CRHOREF
 SMALLEST DENSITY =  0.100E+04
 AT CELL (I,J,K) = (   2,  60,  26)

 
 SOLVING FOR HEAD 
 FLOW MODEL IS TRANSIENT
 FLOW MODEL CONTAINS CONSTANT-HEAD CELLS


 MAXIMUM STEPSIZE DURING WHICH ANY PARTICLE CANNOT MOVE MORE THAN ONE CELL
 = 0.1701    (WHEN MIN. R.F.=1)  AT K=   3, I=   2, J=  30

 MAXIMUM STEPSIZE WHICH MEETS STABILITY CRITERION OF THE ADVECTION TERM
 (FOR PURE FINITE-DIFFERENCE OPTION, MIXELM=0) 
 = 0.1349    (WHEN MIN. R.F.=1)  AT K=   3, I=   2, J=  31


 TOTAL NUMBER OF POINT SOURCES/SINKS PRESENT IN THE FLOW MODEL =   240

 MAXIMUM STEPSIZE WHICH MEETS STABILITY CRITERION OF THE SINK & SOURCE TERM
 = 0.1000E+31(WHEN MIN. R.F.=1)  AT K=   0, I=   0, J=   0

 MAXIMUM STEPSIZE WHICH MEETS STABILITY CRITERION OF THE DISPERSION TERM
 = 0.7291E-02(WHEN MIN. R.F.=1)  AT K=   3, I=   2, J=  30
     1 CALLS TO GCG PACKAGE FOR TRANSPORT TIME STEP   6 IN FLOW TIME STEP  20 STRESS PERIOD   2
    18 TOTAL ITERATIONS
0WARNING: NUMERICAL OSCILLATION ENCOUNTERED
 ONE OR MORE CELL CONCENTRATIONS LESS THAN CRHOREF
 SMALLEST DENSITY =  0.100E+04
 AT CELL (I,J,K) = (   2,  60,  26)

 
 SOLVING FOR HEAD 
 FLOW MODEL IS TRANSIENT
 FLOW MODEL CONTAINS CONSTANT-HEAD CELLS


 MAXIMUM STEPSIZE DURING WHICH ANY PARTICLE CANNOT MOVE MORE THAN ONE CELL
 = 0.1701    (WHEN MIN. R.F.=1)  AT K=   3, I=   2, J=  30

 MAXIMUM STEPSIZE WHICH MEETS STABILITY CRITERION OF THE ADVECTION TERM
 (FOR PURE FINITE-DIFFERENCE OPTION, MIXELM=0) 
 = 0.1349    (WHEN MIN. R.F.=1)  AT K=   3, I=   2, J=  31


 TOTAL NUMBER OF POINT SOURCES/SINKS PRESENT IN THE FLOW MODEL =   240

 MAXIMUM STEPSIZE WHICH MEETS STABILITY CRITERION OF THE SINK & SOURCE TERM
 = 0.1000E+31(WHEN MIN. R.F.=1)  AT K=   0, I=   0, J=   0

 MAXIMUM STEPSIZE WHICH MEETS STABILITY CRITERION OF THE DISPERSION TERM
 = 0.7291E-02(WHEN MIN. R.F.=1)  AT K=   3, I=   2, J=  30
     1 CALLS TO GCG PACKAGE FOR TRANSPORT TIME STEP   7 IN FLOW TIME STEP  20 STRESS PERIOD   2
    18 TOTAL ITERATIONS
0WARNING: NUMERICAL OSCILLATION ENCOUNTERED
 ONE OR MORE CELL CONCENTRATIONS LESS THAN CRHOREF
 SMALLEST DENSITY =  0.100E+04
 AT CELL (I,J,K) = (   2,  60,  26)

 
 SOLVING FOR HEAD 
 FLOW MODEL IS TRANSIENT
 FLOW MODEL CONTAINS CONSTANT-HEAD CELLS


 MAXIMUM STEPSIZE DURING WHICH ANY PARTICLE CANNOT MOVE MORE THAN ONE CELL
 = 0.1701    (WHEN MIN. R.F.=1)  AT K=   3, I=   2, J=  30

 MAXIMUM STEPSIZE WHICH MEETS STABILITY CRITERION OF THE ADVECTION TERM
 (FOR PURE FINITE-DIFFERENCE OPTION, MIXELM=0) 
 = 0.1349    (WHEN MIN. R.F.=1)  AT K=   3, I=   2, J=  31


 TOTAL NUMBER OF POINT SOURCES/SINKS PRESENT IN THE FLOW MODEL =   240

 MAXIMUM STEPSIZE WHICH MEETS STABILITY CRITERION OF THE SINK & SOURCE TERM
 = 0.1000E+31(WHEN MIN. R.F.=1)  AT K=   0, I=   0, J=   0

 MAXIMUM STEPSIZE WHICH MEETS STABILITY CRITERION OF THE DISPERSION TERM
 = 0.7291E-02(WHEN MIN. R.F.=1)  AT K=   3, I=   2, J=  30
     1 CALLS TO GCG PACKAGE FOR TRANSPORT TIME STEP   8 IN FLOW TIME STEP  20 STRESS PERIOD   2
    16 TOTAL ITERATIONS
  MAXIMUM CONCENTRATION CHANGES FOR EACH ITERATION:
  MAX. CHANGE LAYER,ROW,COL MAX. CHANGE LAYER,ROW,COL MAX. CHANGE LAYER,ROW,COL MAX. CHANGE LAYER,ROW,COL MAX. CHANGE LAYER,ROW,COL
 ------------------------------------------------------------------------------------------------------------------------------------
   0.2721E-02 ( 13,  1, 48)  0.4864E-03 (  6,  1, 62)  0.1910E-03 (  9,  1, 57)  0.8265E-04 (  5,  2, 53)  0.4460E-04 (  6,  1, 40)
   0.2747E-04 (  3,  2, 31)  0.1700E-04 (  3,  2, 30)  0.1172E-04 (  3,  2, 29)  0.7129E-05 (  3,  2, 32)  0.4062E-05 (  3,  2, 29)
   0.2150E-05 (  4,  3, 33)  0.1208E-05 (  4,  3, 30)  0.7128E-06 (  4,  3, 31)  0.4114E-06 (  3,  3, 31)  0.2072E-06 (  3,  2, 29)
   0.8741E-07 (  4,  1, 34)
0WARNING: NUMERICAL OSCILLATION ENCOUNTERED
 ONE OR MORE CELL CONCENTRATIONS LESS THAN CRHOREF
 SMALLEST DENSITY =  0.100E+04
 AT CELL (I,J,K) = (   2,  60,  26)



                                          ================================================
                                                         FROM TIME =   21.000     TO    22.000    

 
 SOLVING FOR HEAD 
 FLOW MODEL IS TRANSIENT
 FLOW MODEL CONTAINS CONSTANT-HEAD CELLS


 MAXIMUM STEPSIZE DURING WHICH ANY PARTICLE CANNOT MOVE MORE THAN ONE CELL
 = 0.1701    (WHEN MIN. R.F.=1)  AT K=   3, I=   2, J=  30

 MAXIMUM STEPSIZE WHICH MEETS STABILITY CRITERION OF THE ADVECTION TERM
 (FOR PURE FINITE-DIFFERENCE OPTION, MIXELM=0) 
 = 0.1349    (WHEN MIN. R.F.=1)  AT K=   3, I=   2, J=  31


 TOTAL NUMBER OF POINT SOURCES/SINKS PRESENT IN THE FLOW MODEL =   240

 MAXIMUM STEPSIZE WHICH MEETS STABILITY CRITERION OF THE SINK & SOURCE TERM
 = 0.1000E+31(WHEN MIN. R.F.=1)  AT K=   0, I=   0, J=   0

 MAXIMUM STEPSIZE WHICH MEETS STABILITY CRITERION OF THE DISPERSION TERM
 = 0.7291E-02(WHEN MIN. R.F.=1)  AT K=   3, I=   2, J=  30


     1 CALLS TO GCG PACKAGE FOR TRANSPORT TIME STEP   1 IN FLOW TIME STEP  21 STRESS PERIOD   2
    18 TOTAL ITERATIONS

 NO OUTPUT CONTROL FOR STRESS PERIOD    2   TIME STEP  21
0WARNING: NUMERICAL OSCILLATION ENCOUNTERED
 ONE OR MORE CELL CONCENTRATIONS LESS THAN CRHOREF
 SMALLEST DENSITY =  0.100E+04
 AT CELL (I,J,K) = (   3,  57,  27)

 
 SOLVING FOR HEAD 
 FLOW MODEL IS TRANSIENT
 FLOW MODEL CONTAINS CONSTANT-HEAD CELLS


 MAXIMUM STEPSIZE DURING WHICH ANY PARTICLE CANNOT MOVE MORE THAN ONE CELL
 = 0.1701    (WHEN MIN. R.F.=1)  AT K=   3, I=   2, J=  30

 MAXIMUM STEPSIZE WHICH MEETS STABILITY CRITERION OF THE ADVECTION TERM
 (FOR PURE FINITE-DIFFERENCE OPTION, MIXELM=0) 
 = 0.1349    (WHEN MIN. R.F.=1)  AT K=   3, I=   2, J=  31


 TOTAL NUMBER OF POINT SOURCES/SINKS PRESENT IN THE FLOW MODEL =   240

 MAXIMUM STEPSIZE WHICH MEETS STABILITY CRITERION OF THE SINK & SOURCE TERM
 = 0.1000E+31(WHEN MIN. R.F.=1)  AT K=   0, I=   0, J=   0

 MAXIMUM STEPSIZE WHICH MEETS STABILITY CRITERION OF THE DISPERSION TERM
 = 0.7290E-02(WHEN MIN. R.F.=1)  AT K=   3, I=   2, J=  30
     1 CALLS TO GCG PACKAGE FOR TRANSPORT TIME STEP   2 IN FLOW TIME STEP  21 STRESS PERIOD   2
    18 TOTAL ITERATIONS
0WARNING: NUMERICAL OSCILLATION ENCOUNTERED
 ONE OR MORE CELL CONCENTRATIONS LESS THAN CRHOREF
 SMALLEST DENSITY =  0.100E+04
 AT CELL (I,J,K) = (   3,  57,  27)

 
 SOLVING FOR HEAD 
 FLOW MODEL IS TRANSIENT
 FLOW MODEL CONTAINS CONSTANT-HEAD CELLS


 MAXIMUM STEPSIZE DURING WHICH ANY PARTICLE CANNOT MOVE MORE THAN ONE CELL
 = 0.1701    (WHEN MIN. R.F.=1)  AT K=   3, I=   2, J=  30

 MAXIMUM STEPSIZE WHICH MEETS STABILITY CRITERION OF THE ADVECTION TERM
 (FOR PURE FINITE-DIFFERENCE OPTION, MIXELM=0) 
 = 0.1349    (WHEN MIN. R.F.=1)  AT K=   3, I=   2, J=  31


 TOTAL NUMBER OF POINT SOURCES/SINKS PRESENT IN THE FLOW MODEL =   240

 MAXIMUM STEPSIZE WHICH MEETS STABILITY CRITERION OF THE SINK & SOURCE TERM
 = 0.1000E+31(WHEN MIN. R.F.=1)  AT K=   0, I=   0, J=   0

 MAXIMUM STEPSIZE WHICH MEETS STABILITY CRITERION OF THE DISPERSION TERM
 = 0.7290E-02(WHEN MIN. R.F.=1)  AT K=   3, I=   2, J=  30
     1 CALLS TO GCG PACKAGE FOR TRANSPORT TIME STEP   3 IN FLOW TIME STEP  21 STRESS PERIOD   2
    18 TOTAL ITERATIONS
0WARNING: NUMERICAL OSCILLATION ENCOUNTERED
 ONE OR MORE CELL CONCENTRATIONS LESS THAN CRHOREF
 SMALLEST DENSITY =  0.100E+04
 AT CELL (I,J,K) = (   3,  57,  27)

 
 SOLVING FOR HEAD 
 FLOW MODEL IS TRANSIENT
 FLOW MODEL CONTAINS CONSTANT-HEAD CELLS


 MAXIMUM STEPSIZE DURING WHICH ANY PARTICLE CANNOT MOVE MORE THAN ONE CELL
 = 0.1701    (WHEN MIN. R.F.=1)  AT K=   3, I=   2, J=  30

 MAXIMUM STEPSIZE WHICH MEETS STABILITY CRITERION OF THE ADVECTION TERM
 (FOR PURE FINITE-DIFFERENCE OPTION, MIXELM=0) 
 = 0.1349    (WHEN MIN. R.F.=1)  AT K=   3, I=   2, J=  31


 TOTAL NUMBER OF POINT SOURCES/SINKS PRESENT IN THE FLOW MODEL =   240

 MAXIMUM STEPSIZE WHICH MEETS STABILITY CRITERION OF THE SINK & SOURCE TERM
 = 0.1000E+31(WHEN MIN. R.F.=1)  AT K=   0, I=   0, J=   0

 MAXIMUM STEPSIZE WHICH MEETS STABILITY CRITERION OF THE DISPERSION TERM
 = 0.7290E-02(WHEN MIN. R.F.=1)  AT K=   3, I=   2, J=  30
     1 CALLS TO GCG PACKAGE FOR TRANSPORT TIME STEP   4 IN FLOW TIME STEP  21 STRESS PERIOD   2
    18 TOTAL ITERATIONS
0WARNING: NUMERICAL OSCILLATION ENCOUNTERED
 ONE OR MORE CELL CONCENTRATIONS LESS THAN CRHOREF
 SMALLEST DENSITY =  0.100E+04
 AT CELL (I,J,K) = (   3,  57,  27)

 
 SOLVING FOR HEAD 
 FLOW MODEL IS TRANSIENT
 FLOW MODEL CONTAINS CONSTANT-HEAD CELLS


 MAXIMUM STEPSIZE DURING WHICH ANY PARTICLE CANNOT MOVE MORE THAN ONE CELL
 = 0.1701    (WHEN MIN. R.F.=1)  AT K=   3, I=   2, J=  30

 MAXIMUM STEPSIZE WHICH MEETS STABILITY CRITERION OF THE ADVECTION TERM
 (FOR PURE FINITE-DIFFERENCE OPTION, MIXELM=0) 
 = 0.1348    (WHEN MIN. R.F.=1)  AT K=   3, I=   2, J=  31


 TOTAL NUMBER OF POINT SOURCES/SINKS PRESENT IN THE FLOW MODEL =   240

 MAXIMUM STEPSIZE WHICH MEETS STABILITY CRITERION OF THE SINK & SOURCE TERM
 = 0.1000E+31(WHEN MIN. R.F.=1)  AT K=   0, I=   0, J=   0

 MAXIMUM STEPSIZE WHICH MEETS STABILITY CRITERION OF THE DISPERSION TERM
 = 0.7290E-02(WHEN MIN. R.F.=1)  AT K=   3, I=   2, J=  30
     1 CALLS TO GCG PACKAGE FOR TRANSPORT TIME STEP   5 IN FLOW TIME STEP  21 STRESS PERIOD   2
    18 TOTAL ITERATIONS
0WARNING: NUMERICAL OSCILLATION ENCOUNTERED
 ONE OR MORE CELL CONCENTRATIONS LESS THAN CRHOREF
 SMALLEST DENSITY =  0.100E+04
 AT CELL (I,J,K) = (   3,  57,  27)

 
 SOLVING FOR HEAD 
 FLOW MODEL IS TRANSIENT
 FLOW MODEL CONTAINS CONSTANT-HEAD CELLS


 MAXIMUM STEPSIZE DURING WHICH ANY PARTICLE CANNOT MOVE MORE THAN ONE CELL
 = 0.1701    (WHEN MIN. R.F.=1)  AT K=   3, I=   2, J=  30

 MAXIMUM STEPSIZE WHICH MEETS STABILITY CRITERION OF THE ADVECTION TERM
 (FOR PURE FINITE-DIFFERENCE OPTION, MIXELM=0) 
 = 0.1348    (WHEN MIN. R.F.=1)  AT K=   3, I=   2, J=  31


 TOTAL NUMBER OF POINT SOURCES/SINKS PRESENT IN THE FLOW MODEL =   240

 MAXIMUM STEPSIZE WHICH MEETS STABILITY CRITERION OF THE SINK & SOURCE TERM
 = 0.1000E+31(WHEN MIN. R.F.=1)  AT K=   0, I=   0, J=   0

 MAXIMUM STEPSIZE WHICH MEETS STABILITY CRITERION OF THE DISPERSION TERM
 = 0.7290E-02(WHEN MIN. R.F.=1)  AT K=   3, I=   2, J=  30
     1 CALLS TO GCG PACKAGE FOR TRANSPORT TIME STEP   6 IN FLOW TIME STEP  21 STRESS PERIOD   2
    18 TOTAL ITERATIONS
0WARNING: NUMERICAL OSCILLATION ENCOUNTERED
 ONE OR MORE CELL CONCENTRATIONS LESS THAN CRHOREF
 SMALLEST DENSITY =  0.100E+04
 AT CELL (I,J,K) = (   3,  57,  27)

 
 SOLVING FOR HEAD 
 FLOW MODEL IS TRANSIENT
 FLOW MODEL CONTAINS CONSTANT-HEAD CELLS


 MAXIMUM STEPSIZE DURING WHICH ANY PARTICLE CANNOT MOVE MORE THAN ONE CELL
 = 0.1701    (WHEN MIN. R.F.=1)  AT K=   3, I=   2, J=  30

 MAXIMUM STEPSIZE WHICH MEETS STABILITY CRITERION OF THE ADVECTION TERM
 (FOR PURE FINITE-DIFFERENCE OPTION, MIXELM=0) 
 = 0.1348    (WHEN MIN. R.F.=1)  AT K=   3, I=   2, J=  31


 TOTAL NUMBER OF POINT SOURCES/SINKS PRESENT IN THE FLOW MODEL =   240

 MAXIMUM STEPSIZE WHICH MEETS STABILITY CRITERION OF THE SINK & SOURCE TERM
 = 0.1000E+31(WHEN MIN. R.F.=1)  AT K=   0, I=   0, J=   0

 MAXIMUM STEPSIZE WHICH MEETS STABILITY CRITERION OF THE DISPERSION TERM
 = 0.7290E-02(WHEN MIN. R.F.=1)  AT K=   3, I=   2, J=  30
     1 CALLS TO GCG PACKAGE FOR TRANSPORT TIME STEP   7 IN FLOW TIME STEP  21 STRESS PERIOD   2
    18 TOTAL ITERATIONS
0WARNING: NUMERICAL OSCILLATION ENCOUNTERED
 ONE OR MORE CELL CONCENTRATIONS LESS THAN CRHOREF
 SMALLEST DENSITY =  0.100E+04
 AT CELL (I,J,K) = (   3,  57,  27)

 
 SOLVING FOR HEAD 
 FLOW MODEL IS TRANSIENT
 FLOW MODEL CONTAINS CONSTANT-HEAD CELLS


 MAXIMUM STEPSIZE DURING WHICH ANY PARTICLE CANNOT MOVE MORE THAN ONE CELL
 = 0.1701    (WHEN MIN. R.F.=1)  AT K=   3, I=   2, J=  30

 MAXIMUM STEPSIZE WHICH MEETS STABILITY CRITERION OF THE ADVECTION TERM
 (FOR PURE FINITE-DIFFERENCE OPTION, MIXELM=0) 
 = 0.1348    (WHEN MIN. R.F.=1)  AT K=   3, I=   2, J=  31


 TOTAL NUMBER OF POINT SOURCES/SINKS PRESENT IN THE FLOW MODEL =   240

 MAXIMUM STEPSIZE WHICH MEETS STABILITY CRITERION OF THE SINK & SOURCE TERM
 = 0.1000E+31(WHEN MIN. R.F.=1)  AT K=   0, I=   0, J=   0

 MAXIMUM STEPSIZE WHICH MEETS STABILITY CRITERION OF THE DISPERSION TERM
 = 0.7290E-02(WHEN MIN. R.F.=1)  AT K=   3, I=   2, J=  30
     1 CALLS TO GCG PACKAGE FOR TRANSPORT TIME STEP   8 IN FLOW TIME STEP  21 STRESS PERIOD   2
    16 TOTAL ITERATIONS
  MAXIMUM CONCENTRATION CHANGES FOR EACH ITERATION:
  MAX. CHANGE LAYER,ROW,COL MAX. CHANGE LAYER,ROW,COL MAX. CHANGE LAYER,ROW,COL MAX. CHANGE LAYER,ROW,COL MAX. CHANGE LAYER,ROW,COL
 ------------------------------------------------------------------------------------------------------------------------------------
   0.2588E-02 ( 13,  1, 48)  0.4562E-03 (  6,  1, 62)  0.1785E-03 (  9,  1, 57)  0.7654E-04 (  5,  2, 53)  0.4041E-04 (  6,  1, 40)
   0.2515E-04 (  3,  2, 31)  0.1555E-04 (  3,  2, 30)  0.1077E-04 (  3,  2, 29)  0.6530E-05 (  3,  2, 32)  0.3737E-05 (  3,  2, 29)
   0.1968E-05 (  4,  3, 33)  0.1109E-05 (  4,  3, 30)  0.6551E-06 (  4,  3, 31)  0.3782E-06 (  3,  3, 31)  0.1911E-06 (  3,  2, 29)
   0.8011E-07 (  4,  1, 34)
0WARNING: NUMERICAL OSCILLATION ENCOUNTERED
 ONE OR MORE CELL CONCENTRATIONS LESS THAN CRHOREF
 SMALLEST DENSITY =  0.100E+04
 AT CELL (I,J,K) = (   3,  57,  27)



                                          ================================================
                                                         FROM TIME =   22.000     TO    23.000    

 
 SOLVING FOR HEAD 
 FLOW MODEL IS TRANSIENT
 FLOW MODEL CONTAINS CONSTANT-HEAD CELLS


 MAXIMUM STEPSIZE DURING WHICH ANY PARTICLE CANNOT MOVE MORE THAN ONE CELL
 = 0.1701    (WHEN MIN. R.F.=1)  AT K=   3, I=   2, J=  30

 MAXIMUM STEPSIZE WHICH MEETS STABILITY CRITERION OF THE ADVECTION TERM
 (FOR PURE FINITE-DIFFERENCE OPTION, MIXELM=0) 
 = 0.1348    (WHEN MIN. R.F.=1)  AT K=   3, I=   2, J=  31


 TOTAL NUMBER OF POINT SOURCES/SINKS PRESENT IN THE FLOW MODEL =   240

 MAXIMUM STEPSIZE WHICH MEETS STABILITY CRITERION OF THE SINK & SOURCE TERM
 = 0.1000E+31(WHEN MIN. R.F.=1)  AT K=   0, I=   0, J=   0

 MAXIMUM STEPSIZE WHICH MEETS STABILITY CRITERION OF THE DISPERSION TERM
 = 0.7290E-02(WHEN MIN. R.F.=1)  AT K=   3, I=   2, J=  30


     1 CALLS TO GCG PACKAGE FOR TRANSPORT TIME STEP   1 IN FLOW TIME STEP  22 STRESS PERIOD   2
    18 TOTAL ITERATIONS

 NO OUTPUT CONTROL FOR STRESS PERIOD    2   TIME STEP  22
0WARNING: NUMERICAL OSCILLATION ENCOUNTERED
 ONE OR MORE CELL CONCENTRATIONS LESS THAN CRHOREF
 SMALLEST DENSITY =  0.100E+04
 AT CELL (I,J,K) = (   3,  57,  27)

 
 SOLVING FOR HEAD 
 FLOW MODEL IS TRANSIENT
 FLOW MODEL CONTAINS CONSTANT-HEAD CELLS


 MAXIMUM STEPSIZE DURING WHICH ANY PARTICLE CANNOT MOVE MORE THAN ONE CELL
 = 0.1701    (WHEN MIN. R.F.=1)  AT K=   3, I=   2, J=  30

 MAXIMUM STEPSIZE WHICH MEETS STABILITY CRITERION OF THE ADVECTION TERM
 (FOR PURE FINITE-DIFFERENCE OPTION, MIXELM=0) 
 = 0.1348    (WHEN MIN. R.F.=1)  AT K=   3, I=   2, J=  31


 TOTAL NUMBER OF POINT SOURCES/SINKS PRESENT IN THE FLOW MODEL =   240

 MAXIMUM STEPSIZE WHICH MEETS STABILITY CRITERION OF THE SINK & SOURCE TERM
 = 0.1000E+31(WHEN MIN. R.F.=1)  AT K=   0, I=   0, J=   0

 MAXIMUM STEPSIZE WHICH MEETS STABILITY CRITERION OF THE DISPERSION TERM
 = 0.7290E-02(WHEN MIN. R.F.=1)  AT K=   3, I=   2, J=  30
     1 CALLS TO GCG PACKAGE FOR TRANSPORT TIME STEP   2 IN FLOW TIME STEP  22 STRESS PERIOD   2
    18 TOTAL ITERATIONS
0WARNING: NUMERICAL OSCILLATION ENCOUNTERED
 ONE OR MORE CELL CONCENTRATIONS LESS THAN CRHOREF
 SMALLEST DENSITY =  0.100E+04
 AT CELL (I,J,K) = (   3,  57,  27)

 
 SOLVING FOR HEAD 
 FLOW MODEL IS TRANSIENT
 FLOW MODEL CONTAINS CONSTANT-HEAD CELLS


 MAXIMUM STEPSIZE DURING WHICH ANY PARTICLE CANNOT MOVE MORE THAN ONE CELL
 = 0.1701    (WHEN MIN. R.F.=1)  AT K=   3, I=   2, J=  30

 MAXIMUM STEPSIZE WHICH MEETS STABILITY CRITERION OF THE ADVECTION TERM
 (FOR PURE FINITE-DIFFERENCE OPTION, MIXELM=0) 
 = 0.1348    (WHEN MIN. R.F.=1)  AT K=   3, I=   2, J=  31


 TOTAL NUMBER OF POINT SOURCES/SINKS PRESENT IN THE FLOW MODEL =   240

 MAXIMUM STEPSIZE WHICH MEETS STABILITY CRITERION OF THE SINK & SOURCE TERM
 = 0.1000E+31(WHEN MIN. R.F.=1)  AT K=   0, I=   0, J=   0

 MAXIMUM STEPSIZE WHICH MEETS STABILITY CRITERION OF THE DISPERSION TERM
 = 0.7290E-02(WHEN MIN. R.F.=1)  AT K=   3, I=   2, J=  30
     1 CALLS TO GCG PACKAGE FOR TRANSPORT TIME STEP   3 IN FLOW TIME STEP  22 STRESS PERIOD   2
    18 TOTAL ITERATIONS
0WARNING: NUMERICAL OSCILLATION ENCOUNTERED
 ONE OR MORE CELL CONCENTRATIONS LESS THAN CRHOREF
 SMALLEST DENSITY =  0.100E+04
 AT CELL (I,J,K) = (   3,  57,  27)

 
 SOLVING FOR HEAD 
 FLOW MODEL IS TRANSIENT
 FLOW MODEL CONTAINS CONSTANT-HEAD CELLS


 MAXIMUM STEPSIZE DURING WHICH ANY PARTICLE CANNOT MOVE MORE THAN ONE CELL
 = 0.1701    (WHEN MIN. R.F.=1)  AT K=   3, I=   2, J=  30

 MAXIMUM STEPSIZE WHICH MEETS STABILITY CRITERION OF THE ADVECTION TERM
 (FOR PURE FINITE-DIFFERENCE OPTION, MIXELM=0) 
 = 0.1348    (WHEN MIN. R.F.=1)  AT K=   3, I=   2, J=  31


 TOTAL NUMBER OF POINT SOURCES/SINKS PRESENT IN THE FLOW MODEL =   240

 MAXIMUM STEPSIZE WHICH MEETS STABILITY CRITERION OF THE SINK & SOURCE TERM
 = 0.1000E+31(WHEN MIN. R.F.=1)  AT K=   0, I=   0, J=   0

 MAXIMUM STEPSIZE WHICH MEETS STABILITY CRITERION OF THE DISPERSION TERM
 = 0.7290E-02(WHEN MIN. R.F.=1)  AT K=   3, I=   2, J=  30
     1 CALLS TO GCG PACKAGE FOR TRANSPORT TIME STEP   4 IN FLOW TIME STEP  22 STRESS PERIOD   2
    18 TOTAL ITERATIONS
0WARNING: NUMERICAL OSCILLATION ENCOUNTERED
 ONE OR MORE CELL CONCENTRATIONS LESS THAN CRHOREF
 SMALLEST DENSITY =  0.100E+04
 AT CELL (I,J,K) = (   3,  57,  27)

 
 SOLVING FOR HEAD 
 FLOW MODEL IS TRANSIENT
 FLOW MODEL CONTAINS CONSTANT-HEAD CELLS


 MAXIMUM STEPSIZE DURING WHICH ANY PARTICLE CANNOT MOVE MORE THAN ONE CELL
 = 0.1701    (WHEN MIN. R.F.=1)  AT K=   3, I=   2, J=  30

 MAXIMUM STEPSIZE WHICH MEETS STABILITY CRITERION OF THE ADVECTION TERM
 (FOR PURE FINITE-DIFFERENCE OPTION, MIXELM=0) 
 = 0.1348    (WHEN MIN. R.F.=1)  AT K=   3, I=   2, J=  31


 TOTAL NUMBER OF POINT SOURCES/SINKS PRESENT IN THE FLOW MODEL =   240

 MAXIMUM STEPSIZE WHICH MEETS STABILITY CRITERION OF THE SINK & SOURCE TERM
 = 0.1000E+31(WHEN MIN. R.F.=1)  AT K=   0, I=   0, J=   0

 MAXIMUM STEPSIZE WHICH MEETS STABILITY CRITERION OF THE DISPERSION TERM
 = 0.7290E-02(WHEN MIN. R.F.=1)  AT K=   3, I=   2, J=  30
     1 CALLS TO GCG PACKAGE FOR TRANSPORT TIME STEP   5 IN FLOW TIME STEP  22 STRESS PERIOD   2
    18 TOTAL ITERATIONS
0WARNING: NUMERICAL OSCILLATION ENCOUNTERED
 ONE OR MORE CELL CONCENTRATIONS LESS THAN CRHOREF
 SMALLEST DENSITY =  0.100E+04
 AT CELL (I,J,K) = (   3,  58,  27)

 
 SOLVING FOR HEAD 
 FLOW MODEL IS TRANSIENT
 FLOW MODEL CONTAINS CONSTANT-HEAD CELLS


 MAXIMUM STEPSIZE DURING WHICH ANY PARTICLE CANNOT MOVE MORE THAN ONE CELL
 = 0.1701    (WHEN MIN. R.F.=1)  AT K=   3, I=   2, J=  30

 MAXIMUM STEPSIZE WHICH MEETS STABILITY CRITERION OF THE ADVECTION TERM
 (FOR PURE FINITE-DIFFERENCE OPTION, MIXELM=0) 
 = 0.1348    (WHEN MIN. R.F.=1)  AT K=   3, I=   2, J=  31


 TOTAL NUMBER OF POINT SOURCES/SINKS PRESENT IN THE FLOW MODEL =   240

 MAXIMUM STEPSIZE WHICH MEETS STABILITY CRITERION OF THE SINK & SOURCE TERM
 = 0.1000E+31(WHEN MIN. R.F.=1)  AT K=   0, I=   0, J=   0

 MAXIMUM STEPSIZE WHICH MEETS STABILITY CRITERION OF THE DISPERSION TERM
 = 0.7290E-02(WHEN MIN. R.F.=1)  AT K=   3, I=   2, J=  30
     1 CALLS TO GCG PACKAGE FOR TRANSPORT TIME STEP   6 IN FLOW TIME STEP  22 STRESS PERIOD   2
    18 TOTAL ITERATIONS
0WARNING: NUMERICAL OSCILLATION ENCOUNTERED
 ONE OR MORE CELL CONCENTRATIONS LESS THAN CRHOREF
 SMALLEST DENSITY =  0.100E+04
 AT CELL (I,J,K) = (   3,  58,  27)

 
 SOLVING FOR HEAD 
 FLOW MODEL IS TRANSIENT
 FLOW MODEL CONTAINS CONSTANT-HEAD CELLS


 MAXIMUM STEPSIZE DURING WHICH ANY PARTICLE CANNOT MOVE MORE THAN ONE CELL
 = 0.1701    (WHEN MIN. R.F.=1)  AT K=   3, I=   2, J=  30

 MAXIMUM STEPSIZE WHICH MEETS STABILITY CRITERION OF THE ADVECTION TERM
 (FOR PURE FINITE-DIFFERENCE OPTION, MIXELM=0) 
 = 0.1348    (WHEN MIN. R.F.=1)  AT K=   3, I=   2, J=  31


 TOTAL NUMBER OF POINT SOURCES/SINKS PRESENT IN THE FLOW MODEL =   240

 MAXIMUM STEPSIZE WHICH MEETS STABILITY CRITERION OF THE SINK & SOURCE TERM
 = 0.1000E+31(WHEN MIN. R.F.=1)  AT K=   0, I=   0, J=   0

 MAXIMUM STEPSIZE WHICH MEETS STABILITY CRITERION OF THE DISPERSION TERM
 = 0.7290E-02(WHEN MIN. R.F.=1)  AT K=   3, I=   2, J=  30
     1 CALLS TO GCG PACKAGE FOR TRANSPORT TIME STEP   7 IN FLOW TIME STEP  22 STRESS PERIOD   2
    18 TOTAL ITERATIONS
0WARNING: NUMERICAL OSCILLATION ENCOUNTERED
 ONE OR MORE CELL CONCENTRATIONS LESS THAN CRHOREF
 SMALLEST DENSITY =  0.100E+04
 AT CELL (I,J,K) = (   3,  58,  27)

 
 SOLVING FOR HEAD 
 FLOW MODEL IS TRANSIENT
 FLOW MODEL CONTAINS CONSTANT-HEAD CELLS


 MAXIMUM STEPSIZE DURING WHICH ANY PARTICLE CANNOT MOVE MORE THAN ONE CELL
 = 0.1701    (WHEN MIN. R.F.=1)  AT K=   3, I=   2, J=  30

 MAXIMUM STEPSIZE WHICH MEETS STABILITY CRITERION OF THE ADVECTION TERM
 (FOR PURE FINITE-DIFFERENCE OPTION, MIXELM=0) 
 = 0.1348    (WHEN MIN. R.F.=1)  AT K=   3, I=   2, J=  31


 TOTAL NUMBER OF POINT SOURCES/SINKS PRESENT IN THE FLOW MODEL =   240

 MAXIMUM STEPSIZE WHICH MEETS STABILITY CRITERION OF THE SINK & SOURCE TERM
 = 0.1000E+31(WHEN MIN. R.F.=1)  AT K=   0, I=   0, J=   0

 MAXIMUM STEPSIZE WHICH MEETS STABILITY CRITERION OF THE DISPERSION TERM
 = 0.7289E-02(WHEN MIN. R.F.=1)  AT K=   3, I=   2, J=  30
     1 CALLS TO GCG PACKAGE FOR TRANSPORT TIME STEP   8 IN FLOW TIME STEP  22 STRESS PERIOD   2
    16 TOTAL ITERATIONS
  MAXIMUM CONCENTRATION CHANGES FOR EACH ITERATION:
  MAX. CHANGE LAYER,ROW,COL MAX. CHANGE LAYER,ROW,COL MAX. CHANGE LAYER,ROW,COL MAX. CHANGE LAYER,ROW,COL MAX. CHANGE LAYER,ROW,COL
 ------------------------------------------------------------------------------------------------------------------------------------
   0.2450E-02 ( 13,  1, 48)  0.4288E-03 (  6,  1, 62)  0.1669E-03 (  9,  1, 57)  0.7108E-04 (  5,  2, 53)  0.3670E-04 (  6,  1, 40)
   0.2309E-04 (  3,  2, 31)  0.1427E-04 (  3,  2, 30)  0.9918E-05 (  3,  2, 29)  0.5999E-05 (  3,  2, 32)  0.3447E-05 (  3,  2, 29)
   0.1807E-05 (  3,  2, 30)  0.1020E-05 (  4,  3, 30)  0.6038E-06 (  4,  3, 31)  0.3486E-06 (  3,  3, 31)  0.1768E-06 (  3,  2, 29)
   0.7365E-07 (  4,  1, 34)
0WARNING: NUMERICAL OSCILLATION ENCOUNTERED
 ONE OR MORE CELL CONCENTRATIONS LESS THAN CRHOREF
 SMALLEST DENSITY =  0.100E+04
 AT CELL (I,J,K) = (   3,  58,  27)



                                          ================================================
                                                         FROM TIME =   23.000     TO    24.000    

 
 SOLVING FOR HEAD 
 FLOW MODEL IS TRANSIENT
 FLOW MODEL CONTAINS CONSTANT-HEAD CELLS


 MAXIMUM STEPSIZE DURING WHICH ANY PARTICLE CANNOT MOVE MORE THAN ONE CELL
 = 0.1701    (WHEN MIN. R.F.=1)  AT K=   3, I=   2, J=  30

 MAXIMUM STEPSIZE WHICH MEETS STABILITY CRITERION OF THE ADVECTION TERM
 (FOR PURE FINITE-DIFFERENCE OPTION, MIXELM=0) 
 = 0.1348    (WHEN MIN. R.F.=1)  AT K=   3, I=   2, J=  31


 TOTAL NUMBER OF POINT SOURCES/SINKS PRESENT IN THE FLOW MODEL =   240

 MAXIMUM STEPSIZE WHICH MEETS STABILITY CRITERION OF THE SINK & SOURCE TERM
 = 0.1000E+31(WHEN MIN. R.F.=1)  AT K=   0, I=   0, J=   0

 MAXIMUM STEPSIZE WHICH MEETS STABILITY CRITERION OF THE DISPERSION TERM
 = 0.7289E-02(WHEN MIN. R.F.=1)  AT K=   3, I=   2, J=  30


     1 CALLS TO GCG PACKAGE FOR TRANSPORT TIME STEP   1 IN FLOW TIME STEP  23 STRESS PERIOD   2
    18 TOTAL ITERATIONS

 NO OUTPUT CONTROL FOR STRESS PERIOD    2   TIME STEP  23
0WARNING: NUMERICAL OSCILLATION ENCOUNTERED
 ONE OR MORE CELL CONCENTRATIONS LESS THAN CRHOREF
 SMALLEST DENSITY =  0.100E+04
 AT CELL (I,J,K) = (   3,  58,  27)

 
 SOLVING FOR HEAD 
 FLOW MODEL IS TRANSIENT
 FLOW MODEL CONTAINS CONSTANT-HEAD CELLS


 MAXIMUM STEPSIZE DURING WHICH ANY PARTICLE CANNOT MOVE MORE THAN ONE CELL
 = 0.1701    (WHEN MIN. R.F.=1)  AT K=   3, I=   2, J=  30

 MAXIMUM STEPSIZE WHICH MEETS STABILITY CRITERION OF THE ADVECTION TERM
 (FOR PURE FINITE-DIFFERENCE OPTION, MIXELM=0) 
 = 0.1348    (WHEN MIN. R.F.=1)  AT K=   3, I=   2, J=  31


 TOTAL NUMBER OF POINT SOURCES/SINKS PRESENT IN THE FLOW MODEL =   240

 MAXIMUM STEPSIZE WHICH MEETS STABILITY CRITERION OF THE SINK & SOURCE TERM
 = 0.1000E+31(WHEN MIN. R.F.=1)  AT K=   0, I=   0, J=   0

 MAXIMUM STEPSIZE WHICH MEETS STABILITY CRITERION OF THE DISPERSION TERM
 = 0.7289E-02(WHEN MIN. R.F.=1)  AT K=   3, I=   2, J=  30
     1 CALLS TO GCG PACKAGE FOR TRANSPORT TIME STEP   2 IN FLOW TIME STEP  23 STRESS PERIOD   2
    18 TOTAL ITERATIONS
0WARNING: NUMERICAL OSCILLATION ENCOUNTERED
 ONE OR MORE CELL CONCENTRATIONS LESS THAN CRHOREF
 SMALLEST DENSITY =  0.100E+04
 AT CELL (I,J,K) = (   3,  58,  27)

 
 SOLVING FOR HEAD 
 FLOW MODEL IS TRANSIENT
 FLOW MODEL CONTAINS CONSTANT-HEAD CELLS


 MAXIMUM STEPSIZE DURING WHICH ANY PARTICLE CANNOT MOVE MORE THAN ONE CELL
 = 0.1701    (WHEN MIN. R.F.=1)  AT K=   3, I=   2, J=  30

 MAXIMUM STEPSIZE WHICH MEETS STABILITY CRITERION OF THE ADVECTION TERM
 (FOR PURE FINITE-DIFFERENCE OPTION, MIXELM=0) 
 = 0.1348    (WHEN MIN. R.F.=1)  AT K=   3, I=   2, J=  31


 TOTAL NUMBER OF POINT SOURCES/SINKS PRESENT IN THE FLOW MODEL =   240

 MAXIMUM STEPSIZE WHICH MEETS STABILITY CRITERION OF THE SINK & SOURCE TERM
 = 0.1000E+31(WHEN MIN. R.F.=1)  AT K=   0, I=   0, J=   0

 MAXIMUM STEPSIZE WHICH MEETS STABILITY CRITERION OF THE DISPERSION TERM
 = 0.7289E-02(WHEN MIN. R.F.=1)  AT K=   3, I=   2, J=  30
     1 CALLS TO GCG PACKAGE FOR TRANSPORT TIME STEP   3 IN FLOW TIME STEP  23 STRESS PERIOD   2
    17 TOTAL ITERATIONS
0WARNING: NUMERICAL OSCILLATION ENCOUNTERED
 ONE OR MORE CELL CONCENTRATIONS LESS THAN CRHOREF
 SMALLEST DENSITY =  0.100E+04
 AT CELL (I,J,K) = (   3,  58,  27)

 
 SOLVING FOR HEAD 
 FLOW MODEL IS TRANSIENT
 FLOW MODEL CONTAINS CONSTANT-HEAD CELLS


 MAXIMUM STEPSIZE DURING WHICH ANY PARTICLE CANNOT MOVE MORE THAN ONE CELL
 = 0.1701    (WHEN MIN. R.F.=1)  AT K=   3, I=   2, J=  30

 MAXIMUM STEPSIZE WHICH MEETS STABILITY CRITERION OF THE ADVECTION TERM
 (FOR PURE FINITE-DIFFERENCE OPTION, MIXELM=0) 
 = 0.1348    (WHEN MIN. R.F.=1)  AT K=   3, I=   2, J=  31


 TOTAL NUMBER OF POINT SOURCES/SINKS PRESENT IN THE FLOW MODEL =   240

 MAXIMUM STEPSIZE WHICH MEETS STABILITY CRITERION OF THE SINK & SOURCE TERM
 = 0.1000E+31(WHEN MIN. R.F.=1)  AT K=   0, I=   0, J=   0

 MAXIMUM STEPSIZE WHICH MEETS STABILITY CRITERION OF THE DISPERSION TERM
 = 0.7289E-02(WHEN MIN. R.F.=1)  AT K=   3, I=   2, J=  30
     1 CALLS TO GCG PACKAGE FOR TRANSPORT TIME STEP   4 IN FLOW TIME STEP  23 STRESS PERIOD   2
    17 TOTAL ITERATIONS
0WARNING: NUMERICAL OSCILLATION ENCOUNTERED
 ONE OR MORE CELL CONCENTRATIONS LESS THAN CRHOREF
 SMALLEST DENSITY =  0.100E+04
 AT CELL (I,J,K) = (   3,  58,  27)

 
 SOLVING FOR HEAD 
 FLOW MODEL IS TRANSIENT
 FLOW MODEL CONTAINS CONSTANT-HEAD CELLS


 MAXIMUM STEPSIZE DURING WHICH ANY PARTICLE CANNOT MOVE MORE THAN ONE CELL
 = 0.1701    (WHEN MIN. R.F.=1)  AT K=   3, I=   2, J=  30

 MAXIMUM STEPSIZE WHICH MEETS STABILITY CRITERION OF THE ADVECTION TERM
 (FOR PURE FINITE-DIFFERENCE OPTION, MIXELM=0) 
 = 0.1348    (WHEN MIN. R.F.=1)  AT K=   3, I=   2, J=  31


 TOTAL NUMBER OF POINT SOURCES/SINKS PRESENT IN THE FLOW MODEL =   240

 MAXIMUM STEPSIZE WHICH MEETS STABILITY CRITERION OF THE SINK & SOURCE TERM
 = 0.1000E+31(WHEN MIN. R.F.=1)  AT K=   0, I=   0, J=   0

 MAXIMUM STEPSIZE WHICH MEETS STABILITY CRITERION OF THE DISPERSION TERM
 = 0.7289E-02(WHEN MIN. R.F.=1)  AT K=   3, I=   2, J=  30
     1 CALLS TO GCG PACKAGE FOR TRANSPORT TIME STEP   5 IN FLOW TIME STEP  23 STRESS PERIOD   2
    17 TOTAL ITERATIONS
0WARNING: NUMERICAL OSCILLATION ENCOUNTERED
 ONE OR MORE CELL CONCENTRATIONS LESS THAN CRHOREF
 SMALLEST DENSITY =  0.100E+04
 AT CELL (I,J,K) = (   3,  58,  27)

 
 SOLVING FOR HEAD 
 FLOW MODEL IS TRANSIENT
 FLOW MODEL CONTAINS CONSTANT-HEAD CELLS


 MAXIMUM STEPSIZE DURING WHICH ANY PARTICLE CANNOT MOVE MORE THAN ONE CELL
 = 0.1701    (WHEN MIN. R.F.=1)  AT K=   3, I=   2, J=  30

 MAXIMUM STEPSIZE WHICH MEETS STABILITY CRITERION OF THE ADVECTION TERM
 (FOR PURE FINITE-DIFFERENCE OPTION, MIXELM=0) 
 = 0.1348    (WHEN MIN. R.F.=1)  AT K=   3, I=   2, J=  31


 TOTAL NUMBER OF POINT SOURCES/SINKS PRESENT IN THE FLOW MODEL =   240

 MAXIMUM STEPSIZE WHICH MEETS STABILITY CRITERION OF THE SINK & SOURCE TERM
 = 0.1000E+31(WHEN MIN. R.F.=1)  AT K=   0, I=   0, J=   0

 MAXIMUM STEPSIZE WHICH MEETS STABILITY CRITERION OF THE DISPERSION TERM
 = 0.7289E-02(WHEN MIN. R.F.=1)  AT K=   3, I=   2, J=  30
     1 CALLS TO GCG PACKAGE FOR TRANSPORT TIME STEP   6 IN FLOW TIME STEP  23 STRESS PERIOD   2
    17 TOTAL ITERATIONS
0WARNING: NUMERICAL OSCILLATION ENCOUNTERED
 ONE OR MORE CELL CONCENTRATIONS LESS THAN CRHOREF
 SMALLEST DENSITY =  0.100E+04
 AT CELL (I,J,K) = (   3,  58,  27)

 
 SOLVING FOR HEAD 
 FLOW MODEL IS TRANSIENT
 FLOW MODEL CONTAINS CONSTANT-HEAD CELLS


 MAXIMUM STEPSIZE DURING WHICH ANY PARTICLE CANNOT MOVE MORE THAN ONE CELL
 = 0.1701    (WHEN MIN. R.F.=1)  AT K=   3, I=   2, J=  30

 MAXIMUM STEPSIZE WHICH MEETS STABILITY CRITERION OF THE ADVECTION TERM
 (FOR PURE FINITE-DIFFERENCE OPTION, MIXELM=0) 
 = 0.1348    (WHEN MIN. R.F.=1)  AT K=   3, I=   2, J=  31


 TOTAL NUMBER OF POINT SOURCES/SINKS PRESENT IN THE FLOW MODEL =   240

 MAXIMUM STEPSIZE WHICH MEETS STABILITY CRITERION OF THE SINK & SOURCE TERM
 = 0.1000E+31(WHEN MIN. R.F.=1)  AT K=   0, I=   0, J=   0

 MAXIMUM STEPSIZE WHICH MEETS STABILITY CRITERION OF THE DISPERSION TERM
 = 0.7289E-02(WHEN MIN. R.F.=1)  AT K=   3, I=   2, J=  30
     1 CALLS TO GCG PACKAGE FOR TRANSPORT TIME STEP   7 IN FLOW TIME STEP  23 STRESS PERIOD   2
    17 TOTAL ITERATIONS
0WARNING: NUMERICAL OSCILLATION ENCOUNTERED
 ONE OR MORE CELL CONCENTRATIONS LESS THAN CRHOREF
 SMALLEST DENSITY =  0.100E+04
 AT CELL (I,J,K) = (   3,  58,  27)

 
 SOLVING FOR HEAD 
 FLOW MODEL IS TRANSIENT
 FLOW MODEL CONTAINS CONSTANT-HEAD CELLS


 MAXIMUM STEPSIZE DURING WHICH ANY PARTICLE CANNOT MOVE MORE THAN ONE CELL
 = 0.1701    (WHEN MIN. R.F.=1)  AT K=   3, I=   2, J=  30

 MAXIMUM STEPSIZE WHICH MEETS STABILITY CRITERION OF THE ADVECTION TERM
 (FOR PURE FINITE-DIFFERENCE OPTION, MIXELM=0) 
 = 0.1348    (WHEN MIN. R.F.=1)  AT K=   3, I=   2, J=  31


 TOTAL NUMBER OF POINT SOURCES/SINKS PRESENT IN THE FLOW MODEL =   240

 MAXIMUM STEPSIZE WHICH MEETS STABILITY CRITERION OF THE SINK & SOURCE TERM
 = 0.1000E+31(WHEN MIN. R.F.=1)  AT K=   0, I=   0, J=   0

 MAXIMUM STEPSIZE WHICH MEETS STABILITY CRITERION OF THE DISPERSION TERM
 = 0.7289E-02(WHEN MIN. R.F.=1)  AT K=   3, I=   2, J=  30
     1 CALLS TO GCG PACKAGE FOR TRANSPORT TIME STEP   8 IN FLOW TIME STEP  23 STRESS PERIOD   2
    16 TOTAL ITERATIONS
  MAXIMUM CONCENTRATION CHANGES FOR EACH ITERATION:
  MAX. CHANGE LAYER,ROW,COL MAX. CHANGE LAYER,ROW,COL MAX. CHANGE LAYER,ROW,COL MAX. CHANGE LAYER,ROW,COL MAX. CHANGE LAYER,ROW,COL
 ------------------------------------------------------------------------------------------------------------------------------------
   0.2309E-02 ( 13,  1, 48)  0.4037E-03 (  6,  1, 62)  0.1561E-03 (  9,  1, 57)  0.6618E-04 (  5,  2, 53)  0.3348E-04 (  6,  1, 40)
   0.2155E-04 (  3,  2, 31)  0.1337E-04 (  3,  2, 30)  0.9263E-05 (  3,  2, 29)  0.5590E-05 (  3,  2, 32)  0.3221E-05 (  3,  2, 29)
   0.1691E-05 (  3,  2, 30)  0.9471E-06 (  3,  2, 31)  0.5506E-06 (  4,  3, 31)  0.3183E-06 (  3,  3, 31)  0.1585E-06 (  3,  2, 29)
   0.6715E-07 (  5,  2, 49)
0WARNING: NUMERICAL OSCILLATION ENCOUNTERED
 ONE OR MORE CELL CONCENTRATIONS LESS THAN CRHOREF
 SMALLEST DENSITY =  0.100E+04
 AT CELL (I,J,K) = (   3,  58,  27)



                                          ================================================
                                                         FROM TIME =   24.000     TO    25.000    

 
 SOLVING FOR HEAD 
 FLOW MODEL IS TRANSIENT
 FLOW MODEL CONTAINS CONSTANT-HEAD CELLS


 MAXIMUM STEPSIZE DURING WHICH ANY PARTICLE CANNOT MOVE MORE THAN ONE CELL
 = 0.1701    (WHEN MIN. R.F.=1)  AT K=   3, I=   2, J=  30

 MAXIMUM STEPSIZE WHICH MEETS STABILITY CRITERION OF THE ADVECTION TERM
 (FOR PURE FINITE-DIFFERENCE OPTION, MIXELM=0) 
 = 0.1348    (WHEN MIN. R.F.=1)  AT K=   3, I=   2, J=  31


 TOTAL NUMBER OF POINT SOURCES/SINKS PRESENT IN THE FLOW MODEL =   240

 MAXIMUM STEPSIZE WHICH MEETS STABILITY CRITERION OF THE SINK & SOURCE TERM
 = 0.1000E+31(WHEN MIN. R.F.=1)  AT K=   0, I=   0, J=   0

 MAXIMUM STEPSIZE WHICH MEETS STABILITY CRITERION OF THE DISPERSION TERM
 = 0.7289E-02(WHEN MIN. R.F.=1)  AT K=   3, I=   2, J=  30


     1 CALLS TO GCG PACKAGE FOR TRANSPORT TIME STEP   1 IN FLOW TIME STEP  24 STRESS PERIOD   2
    17 TOTAL ITERATIONS

 NO OUTPUT CONTROL FOR STRESS PERIOD    2   TIME STEP  24
0WARNING: NUMERICAL OSCILLATION ENCOUNTERED
 ONE OR MORE CELL CONCENTRATIONS LESS THAN CRHOREF
 SMALLEST DENSITY =  0.100E+04
 AT CELL (I,J,K) = (   3,  58,  27)

 
 SOLVING FOR HEAD 
 FLOW MODEL IS TRANSIENT
 FLOW MODEL CONTAINS CONSTANT-HEAD CELLS


 MAXIMUM STEPSIZE DURING WHICH ANY PARTICLE CANNOT MOVE MORE THAN ONE CELL
 = 0.1701    (WHEN MIN. R.F.=1)  AT K=   3, I=   2, J=  30

 MAXIMUM STEPSIZE WHICH MEETS STABILITY CRITERION OF THE ADVECTION TERM
 (FOR PURE FINITE-DIFFERENCE OPTION, MIXELM=0) 
 = 0.1348    (WHEN MIN. R.F.=1)  AT K=   3, I=   2, J=  31


 TOTAL NUMBER OF POINT SOURCES/SINKS PRESENT IN THE FLOW MODEL =   240

 MAXIMUM STEPSIZE WHICH MEETS STABILITY CRITERION OF THE SINK & SOURCE TERM
 = 0.1000E+31(WHEN MIN. R.F.=1)  AT K=   0, I=   0, J=   0

 MAXIMUM STEPSIZE WHICH MEETS STABILITY CRITERION OF THE DISPERSION TERM
 = 0.7289E-02(WHEN MIN. R.F.=1)  AT K=   3, I=   2, J=  30
     1 CALLS TO GCG PACKAGE FOR TRANSPORT TIME STEP   2 IN FLOW TIME STEP  24 STRESS PERIOD   2
    17 TOTAL ITERATIONS
0WARNING: NUMERICAL OSCILLATION ENCOUNTERED
 ONE OR MORE CELL CONCENTRATIONS LESS THAN CRHOREF
 SMALLEST DENSITY =  0.100E+04
 AT CELL (I,J,K) = (   3,  58,  27)

 
 SOLVING FOR HEAD 
 FLOW MODEL IS TRANSIENT
 FLOW MODEL CONTAINS CONSTANT-HEAD CELLS


 MAXIMUM STEPSIZE DURING WHICH ANY PARTICLE CANNOT MOVE MORE THAN ONE CELL
 = 0.1701    (WHEN MIN. R.F.=1)  AT K=   3, I=   2, J=  30

 MAXIMUM STEPSIZE WHICH MEETS STABILITY CRITERION OF THE ADVECTION TERM
 (FOR PURE FINITE-DIFFERENCE OPTION, MIXELM=0) 
 = 0.1348    (WHEN MIN. R.F.=1)  AT K=   3, I=   2, J=  31


 TOTAL NUMBER OF POINT SOURCES/SINKS PRESENT IN THE FLOW MODEL =   240

 MAXIMUM STEPSIZE WHICH MEETS STABILITY CRITERION OF THE SINK & SOURCE TERM
 = 0.1000E+31(WHEN MIN. R.F.=1)  AT K=   0, I=   0, J=   0

 MAXIMUM STEPSIZE WHICH MEETS STABILITY CRITERION OF THE DISPERSION TERM
 = 0.7289E-02(WHEN MIN. R.F.=1)  AT K=   3, I=   2, J=  30
     1 CALLS TO GCG PACKAGE FOR TRANSPORT TIME STEP   3 IN FLOW TIME STEP  24 STRESS PERIOD   2
    17 TOTAL ITERATIONS
0WARNING: NUMERICAL OSCILLATION ENCOUNTERED
 ONE OR MORE CELL CONCENTRATIONS LESS THAN CRHOREF
 SMALLEST DENSITY =  0.100E+04
 AT CELL (I,J,K) = (   3,  58,  27)

 
 SOLVING FOR HEAD 
 FLOW MODEL IS TRANSIENT
 FLOW MODEL CONTAINS CONSTANT-HEAD CELLS


 MAXIMUM STEPSIZE DURING WHICH ANY PARTICLE CANNOT MOVE MORE THAN ONE CELL
 = 0.1701    (WHEN MIN. R.F.=1)  AT K=   3, I=   2, J=  30

 MAXIMUM STEPSIZE WHICH MEETS STABILITY CRITERION OF THE ADVECTION TERM
 (FOR PURE FINITE-DIFFERENCE OPTION, MIXELM=0) 
 = 0.1348    (WHEN MIN. R.F.=1)  AT K=   3, I=   2, J=  31


 TOTAL NUMBER OF POINT SOURCES/SINKS PRESENT IN THE FLOW MODEL =   240

 MAXIMUM STEPSIZE WHICH MEETS STABILITY CRITERION OF THE SINK & SOURCE TERM
 = 0.1000E+31(WHEN MIN. R.F.=1)  AT K=   0, I=   0, J=   0

 MAXIMUM STEPSIZE WHICH MEETS STABILITY CRITERION OF THE DISPERSION TERM
 = 0.7289E-02(WHEN MIN. R.F.=1)  AT K=   3, I=   2, J=  30
     1 CALLS TO GCG PACKAGE FOR TRANSPORT TIME STEP   4 IN FLOW TIME STEP  24 STRESS PERIOD   2
    17 TOTAL ITERATIONS
0WARNING: NUMERICAL OSCILLATION ENCOUNTERED
 ONE OR MORE CELL CONCENTRATIONS LESS THAN CRHOREF
 SMALLEST DENSITY =  0.100E+04
 AT CELL (I,J,K) = (   3,  58,  27)

 
 SOLVING FOR HEAD 
 FLOW MODEL IS TRANSIENT
 FLOW MODEL CONTAINS CONSTANT-HEAD CELLS


 MAXIMUM STEPSIZE DURING WHICH ANY PARTICLE CANNOT MOVE MORE THAN ONE CELL
 = 0.1701    (WHEN MIN. R.F.=1)  AT K=   3, I=   2, J=  30

 MAXIMUM STEPSIZE WHICH MEETS STABILITY CRITERION OF THE ADVECTION TERM
 (FOR PURE FINITE-DIFFERENCE OPTION, MIXELM=0) 
 = 0.1348    (WHEN MIN. R.F.=1)  AT K=   3, I=   2, J=  31


 TOTAL NUMBER OF POINT SOURCES/SINKS PRESENT IN THE FLOW MODEL =   240

 MAXIMUM STEPSIZE WHICH MEETS STABILITY CRITERION OF THE SINK & SOURCE TERM
 = 0.1000E+31(WHEN MIN. R.F.=1)  AT K=   0, I=   0, J=   0

 MAXIMUM STEPSIZE WHICH MEETS STABILITY CRITERION OF THE DISPERSION TERM
 = 0.7289E-02(WHEN MIN. R.F.=1)  AT K=   3, I=   2, J=  30
     1 CALLS TO GCG PACKAGE FOR TRANSPORT TIME STEP   5 IN FLOW TIME STEP  24 STRESS PERIOD   2
    17 TOTAL ITERATIONS
0WARNING: NUMERICAL OSCILLATION ENCOUNTERED
 ONE OR MORE CELL CONCENTRATIONS LESS THAN CRHOREF
 SMALLEST DENSITY =  0.100E+04
 AT CELL (I,J,K) = (   3,  58,  27)

 
 SOLVING FOR HEAD 
 FLOW MODEL IS TRANSIENT
 FLOW MODEL CONTAINS CONSTANT-HEAD CELLS


 MAXIMUM STEPSIZE DURING WHICH ANY PARTICLE CANNOT MOVE MORE THAN ONE CELL
 = 0.1701    (WHEN MIN. R.F.=1)  AT K=   3, I=   2, J=  30

 MAXIMUM STEPSIZE WHICH MEETS STABILITY CRITERION OF THE ADVECTION TERM
 (FOR PURE FINITE-DIFFERENCE OPTION, MIXELM=0) 
 = 0.1348    (WHEN MIN. R.F.=1)  AT K=   3, I=   2, J=  31


 TOTAL NUMBER OF POINT SOURCES/SINKS PRESENT IN THE FLOW MODEL =   240

 MAXIMUM STEPSIZE WHICH MEETS STABILITY CRITERION OF THE SINK & SOURCE TERM
 = 0.1000E+31(WHEN MIN. R.F.=1)  AT K=   0, I=   0, J=   0

 MAXIMUM STEPSIZE WHICH MEETS STABILITY CRITERION OF THE DISPERSION TERM
 = 0.7289E-02(WHEN MIN. R.F.=1)  AT K=   3, I=   2, J=  30
     1 CALLS TO GCG PACKAGE FOR TRANSPORT TIME STEP   6 IN FLOW TIME STEP  24 STRESS PERIOD   2
    17 TOTAL ITERATIONS
0WARNING: NUMERICAL OSCILLATION ENCOUNTERED
 ONE OR MORE CELL CONCENTRATIONS LESS THAN CRHOREF
 SMALLEST DENSITY =  0.100E+04
 AT CELL (I,J,K) = (   3,  58,  27)

 
 SOLVING FOR HEAD 
 FLOW MODEL IS TRANSIENT
 FLOW MODEL CONTAINS CONSTANT-HEAD CELLS


 MAXIMUM STEPSIZE DURING WHICH ANY PARTICLE CANNOT MOVE MORE THAN ONE CELL
 = 0.1701    (WHEN MIN. R.F.=1)  AT K=   3, I=   2, J=  30

 MAXIMUM STEPSIZE WHICH MEETS STABILITY CRITERION OF THE ADVECTION TERM
 (FOR PURE FINITE-DIFFERENCE OPTION, MIXELM=0) 
 = 0.1348    (WHEN MIN. R.F.=1)  AT K=   3, I=   2, J=  31


 TOTAL NUMBER OF POINT SOURCES/SINKS PRESENT IN THE FLOW MODEL =   240

 MAXIMUM STEPSIZE WHICH MEETS STABILITY CRITERION OF THE SINK & SOURCE TERM
 = 0.1000E+31(WHEN MIN. R.F.=1)  AT K=   0, I=   0, J=   0

 MAXIMUM STEPSIZE WHICH MEETS STABILITY CRITERION OF THE DISPERSION TERM
 = 0.7289E-02(WHEN MIN. R.F.=1)  AT K=   3, I=   2, J=  30
     1 CALLS TO GCG PACKAGE FOR TRANSPORT TIME STEP   7 IN FLOW TIME STEP  24 STRESS PERIOD   2
    17 TOTAL ITERATIONS
0WARNING: NUMERICAL OSCILLATION ENCOUNTERED
 ONE OR MORE CELL CONCENTRATIONS LESS THAN CRHOREF
 SMALLEST DENSITY =  0.100E+04
 AT CELL (I,J,K) = (   3,  58,  27)

 
 SOLVING FOR HEAD 
 FLOW MODEL IS TRANSIENT
 FLOW MODEL CONTAINS CONSTANT-HEAD CELLS


 MAXIMUM STEPSIZE DURING WHICH ANY PARTICLE CANNOT MOVE MORE THAN ONE CELL
 = 0.1701    (WHEN MIN. R.F.=1)  AT K=   3, I=   2, J=  30

 MAXIMUM STEPSIZE WHICH MEETS STABILITY CRITERION OF THE ADVECTION TERM
 (FOR PURE FINITE-DIFFERENCE OPTION, MIXELM=0) 
 = 0.1348    (WHEN MIN. R.F.=1)  AT K=   3, I=   2, J=  31


 TOTAL NUMBER OF POINT SOURCES/SINKS PRESENT IN THE FLOW MODEL =   240

 MAXIMUM STEPSIZE WHICH MEETS STABILITY CRITERION OF THE SINK & SOURCE TERM
 = 0.1000E+31(WHEN MIN. R.F.=1)  AT K=   0, I=   0, J=   0

 MAXIMUM STEPSIZE WHICH MEETS STABILITY CRITERION OF THE DISPERSION TERM
 = 0.7288E-02(WHEN MIN. R.F.=1)  AT K=   3, I=   2, J=  30
     1 CALLS TO GCG PACKAGE FOR TRANSPORT TIME STEP   8 IN FLOW TIME STEP  24 STRESS PERIOD   2
    16 TOTAL ITERATIONS
  MAXIMUM CONCENTRATION CHANGES FOR EACH ITERATION:
  MAX. CHANGE LAYER,ROW,COL MAX. CHANGE LAYER,ROW,COL MAX. CHANGE LAYER,ROW,COL MAX. CHANGE LAYER,ROW,COL MAX. CHANGE LAYER,ROW,COL
 ------------------------------------------------------------------------------------------------------------------------------------
   0.2183E-02 ( 13,  1, 49)  0.3808E-03 (  6,  1, 62)  0.1461E-03 (  9,  1, 57)  0.6176E-04 (  5,  2, 53)  0.3056E-04 (  6,  1, 40)
   0.1989E-04 (  3,  2, 31)  0.1234E-04 (  3,  2, 30)  0.8575E-05 (  3,  2, 29)  0.5166E-05 (  3,  2, 32)  0.2985E-05 (  3,  2, 29)
   0.1565E-05 (  3,  2, 30)  0.8746E-06 (  3,  2, 31)  0.5103E-06 (  4,  3, 31)  0.2950E-06 (  3,  3, 31)  0.1474E-06 (  3,  2, 29)
   0.6224E-07 (  5,  2, 49)
0WARNING: NUMERICAL OSCILLATION ENCOUNTERED
 ONE OR MORE CELL CONCENTRATIONS LESS THAN CRHOREF
 SMALLEST DENSITY =  0.100E+04
 AT CELL (I,J,K) = (   3,  58,  27)



                                          ================================================
                                                         FROM TIME =   25.000     TO    26.000    

 
 SOLVING FOR HEAD 
 FLOW MODEL IS TRANSIENT
 FLOW MODEL CONTAINS CONSTANT-HEAD CELLS


 MAXIMUM STEPSIZE DURING WHICH ANY PARTICLE CANNOT MOVE MORE THAN ONE CELL
 = 0.1701    (WHEN MIN. R.F.=1)  AT K=   3, I=   2, J=  30

 MAXIMUM STEPSIZE WHICH MEETS STABILITY CRITERION OF THE ADVECTION TERM
 (FOR PURE FINITE-DIFFERENCE OPTION, MIXELM=0) 
 = 0.1348    (WHEN MIN. R.F.=1)  AT K=   3, I=   2, J=  31


 TOTAL NUMBER OF POINT SOURCES/SINKS PRESENT IN THE FLOW MODEL =   240

 MAXIMUM STEPSIZE WHICH MEETS STABILITY CRITERION OF THE SINK & SOURCE TERM
 = 0.1000E+31(WHEN MIN. R.F.=1)  AT K=   0, I=   0, J=   0

 MAXIMUM STEPSIZE WHICH MEETS STABILITY CRITERION OF THE DISPERSION TERM
 = 0.7288E-02(WHEN MIN. R.F.=1)  AT K=   3, I=   2, J=  30


     1 CALLS TO GCG PACKAGE FOR TRANSPORT TIME STEP   1 IN FLOW TIME STEP  25 STRESS PERIOD   2
    17 TOTAL ITERATIONS

 NO OUTPUT CONTROL FOR STRESS PERIOD    2   TIME STEP  25
0WARNING: NUMERICAL OSCILLATION ENCOUNTERED
 ONE OR MORE CELL CONCENTRATIONS LESS THAN CRHOREF
 SMALLEST DENSITY =  0.100E+04
 AT CELL (I,J,K) = (   3,  58,  27)

 
 SOLVING FOR HEAD 
 FLOW MODEL IS TRANSIENT
 FLOW MODEL CONTAINS CONSTANT-HEAD CELLS


 MAXIMUM STEPSIZE DURING WHICH ANY PARTICLE CANNOT MOVE MORE THAN ONE CELL
 = 0.1701    (WHEN MIN. R.F.=1)  AT K=   3, I=   2, J=  30

 MAXIMUM STEPSIZE WHICH MEETS STABILITY CRITERION OF THE ADVECTION TERM
 (FOR PURE FINITE-DIFFERENCE OPTION, MIXELM=0) 
 = 0.1348    (WHEN MIN. R.F.=1)  AT K=   3, I=   2, J=  31


 TOTAL NUMBER OF POINT SOURCES/SINKS PRESENT IN THE FLOW MODEL =   240

 MAXIMUM STEPSIZE WHICH MEETS STABILITY CRITERION OF THE SINK & SOURCE TERM
 = 0.1000E+31(WHEN MIN. R.F.=1)  AT K=   0, I=   0, J=   0

 MAXIMUM STEPSIZE WHICH MEETS STABILITY CRITERION OF THE DISPERSION TERM
 = 0.7288E-02(WHEN MIN. R.F.=1)  AT K=   3, I=   2, J=  30
     1 CALLS TO GCG PACKAGE FOR TRANSPORT TIME STEP   2 IN FLOW TIME STEP  25 STRESS PERIOD   2
    17 TOTAL ITERATIONS
0WARNING: NUMERICAL OSCILLATION ENCOUNTERED
 ONE OR MORE CELL CONCENTRATIONS LESS THAN CRHOREF
 SMALLEST DENSITY =  0.100E+04
 AT CELL (I,J,K) = (   3,  58,  27)

 
 SOLVING FOR HEAD 
 FLOW MODEL IS TRANSIENT
 FLOW MODEL CONTAINS CONSTANT-HEAD CELLS


 MAXIMUM STEPSIZE DURING WHICH ANY PARTICLE CANNOT MOVE MORE THAN ONE CELL
 = 0.1701    (WHEN MIN. R.F.=1)  AT K=   3, I=   2, J=  30

 MAXIMUM STEPSIZE WHICH MEETS STABILITY CRITERION OF THE ADVECTION TERM
 (FOR PURE FINITE-DIFFERENCE OPTION, MIXELM=0) 
 = 0.1348    (WHEN MIN. R.F.=1)  AT K=   3, I=   2, J=  31


 TOTAL NUMBER OF POINT SOURCES/SINKS PRESENT IN THE FLOW MODEL =   240

 MAXIMUM STEPSIZE WHICH MEETS STABILITY CRITERION OF THE SINK & SOURCE TERM
 = 0.1000E+31(WHEN MIN. R.F.=1)  AT K=   0, I=   0, J=   0

 MAXIMUM STEPSIZE WHICH MEETS STABILITY CRITERION OF THE DISPERSION TERM
 = 0.7288E-02(WHEN MIN. R.F.=1)  AT K=   3, I=   2, J=  30
     1 CALLS TO GCG PACKAGE FOR TRANSPORT TIME STEP   3 IN FLOW TIME STEP  25 STRESS PERIOD   2
    17 TOTAL ITERATIONS
0WARNING: NUMERICAL OSCILLATION ENCOUNTERED
 ONE OR MORE CELL CONCENTRATIONS LESS THAN CRHOREF
 SMALLEST DENSITY =  0.100E+04
 AT CELL (I,J,K) = (   3,  58,  27)

 
 SOLVING FOR HEAD 
 FLOW MODEL IS TRANSIENT
 FLOW MODEL CONTAINS CONSTANT-HEAD CELLS


 MAXIMUM STEPSIZE DURING WHICH ANY PARTICLE CANNOT MOVE MORE THAN ONE CELL
 = 0.1701    (WHEN MIN. R.F.=1)  AT K=   3, I=   2, J=  30

 MAXIMUM STEPSIZE WHICH MEETS STABILITY CRITERION OF THE ADVECTION TERM
 (FOR PURE FINITE-DIFFERENCE OPTION, MIXELM=0) 
 = 0.1348    (WHEN MIN. R.F.=1)  AT K=   3, I=   2, J=  31


 TOTAL NUMBER OF POINT SOURCES/SINKS PRESENT IN THE FLOW MODEL =   240

 MAXIMUM STEPSIZE WHICH MEETS STABILITY CRITERION OF THE SINK & SOURCE TERM
 = 0.1000E+31(WHEN MIN. R.F.=1)  AT K=   0, I=   0, J=   0

 MAXIMUM STEPSIZE WHICH MEETS STABILITY CRITERION OF THE DISPERSION TERM
 = 0.7288E-02(WHEN MIN. R.F.=1)  AT K=   3, I=   2, J=  30
     1 CALLS TO GCG PACKAGE FOR TRANSPORT TIME STEP   4 IN FLOW TIME STEP  25 STRESS PERIOD   2
    17 TOTAL ITERATIONS
0WARNING: NUMERICAL OSCILLATION ENCOUNTERED
 ONE OR MORE CELL CONCENTRATIONS LESS THAN CRHOREF
 SMALLEST DENSITY =  0.100E+04
 AT CELL (I,J,K) = (   3,  58,  27)

 
 SOLVING FOR HEAD 
 FLOW MODEL IS TRANSIENT
 FLOW MODEL CONTAINS CONSTANT-HEAD CELLS


 MAXIMUM STEPSIZE DURING WHICH ANY PARTICLE CANNOT MOVE MORE THAN ONE CELL
 = 0.1701    (WHEN MIN. R.F.=1)  AT K=   3, I=   2, J=  30

 MAXIMUM STEPSIZE WHICH MEETS STABILITY CRITERION OF THE ADVECTION TERM
 (FOR PURE FINITE-DIFFERENCE OPTION, MIXELM=0) 
 = 0.1348    (WHEN MIN. R.F.=1)  AT K=   3, I=   2, J=  31


 TOTAL NUMBER OF POINT SOURCES/SINKS PRESENT IN THE FLOW MODEL =   240

 MAXIMUM STEPSIZE WHICH MEETS STABILITY CRITERION OF THE SINK & SOURCE TERM
 = 0.1000E+31(WHEN MIN. R.F.=1)  AT K=   0, I=   0, J=   0

 MAXIMUM STEPSIZE WHICH MEETS STABILITY CRITERION OF THE DISPERSION TERM
 = 0.7288E-02(WHEN MIN. R.F.=1)  AT K=   3, I=   2, J=  30
     1 CALLS TO GCG PACKAGE FOR TRANSPORT TIME STEP   5 IN FLOW TIME STEP  25 STRESS PERIOD   2
    17 TOTAL ITERATIONS
0WARNING: NUMERICAL OSCILLATION ENCOUNTERED
 ONE OR MORE CELL CONCENTRATIONS LESS THAN CRHOREF
 SMALLEST DENSITY =  0.100E+04
 AT CELL (I,J,K) = (   3,  58,  27)

 
 SOLVING FOR HEAD 
 FLOW MODEL IS TRANSIENT
 FLOW MODEL CONTAINS CONSTANT-HEAD CELLS


 MAXIMUM STEPSIZE DURING WHICH ANY PARTICLE CANNOT MOVE MORE THAN ONE CELL
 = 0.1701    (WHEN MIN. R.F.=1)  AT K=   3, I=   2, J=  30

 MAXIMUM STEPSIZE WHICH MEETS STABILITY CRITERION OF THE ADVECTION TERM
 (FOR PURE FINITE-DIFFERENCE OPTION, MIXELM=0) 
 = 0.1348    (WHEN MIN. R.F.=1)  AT K=   3, I=   2, J=  31


 TOTAL NUMBER OF POINT SOURCES/SINKS PRESENT IN THE FLOW MODEL =   240

 MAXIMUM STEPSIZE WHICH MEETS STABILITY CRITERION OF THE SINK & SOURCE TERM
 = 0.1000E+31(WHEN MIN. R.F.=1)  AT K=   0, I=   0, J=   0

 MAXIMUM STEPSIZE WHICH MEETS STABILITY CRITERION OF THE DISPERSION TERM
 = 0.7288E-02(WHEN MIN. R.F.=1)  AT K=   3, I=   2, J=  30
     1 CALLS TO GCG PACKAGE FOR TRANSPORT TIME STEP   6 IN FLOW TIME STEP  25 STRESS PERIOD   2
    17 TOTAL ITERATIONS
0WARNING: NUMERICAL OSCILLATION ENCOUNTERED
 ONE OR MORE CELL CONCENTRATIONS LESS THAN CRHOREF
 SMALLEST DENSITY =  0.100E+04
 AT CELL (I,J,K) = (   3,  58,  27)

 
 SOLVING FOR HEAD 
 FLOW MODEL IS TRANSIENT
 FLOW MODEL CONTAINS CONSTANT-HEAD CELLS


 MAXIMUM STEPSIZE DURING WHICH ANY PARTICLE CANNOT MOVE MORE THAN ONE CELL
 = 0.1701    (WHEN MIN. R.F.=1)  AT K=   3, I=   2, J=  30

 MAXIMUM STEPSIZE WHICH MEETS STABILITY CRITERION OF THE ADVECTION TERM
 (FOR PURE FINITE-DIFFERENCE OPTION, MIXELM=0) 
 = 0.1348    (WHEN MIN. R.F.=1)  AT K=   3, I=   2, J=  31


 TOTAL NUMBER OF POINT SOURCES/SINKS PRESENT IN THE FLOW MODEL =   240

 MAXIMUM STEPSIZE WHICH MEETS STABILITY CRITERION OF THE SINK & SOURCE TERM
 = 0.1000E+31(WHEN MIN. R.F.=1)  AT K=   0, I=   0, J=   0

 MAXIMUM STEPSIZE WHICH MEETS STABILITY CRITERION OF THE DISPERSION TERM
 = 0.7288E-02(WHEN MIN. R.F.=1)  AT K=   3, I=   2, J=  30
     1 CALLS TO GCG PACKAGE FOR TRANSPORT TIME STEP   7 IN FLOW TIME STEP  25 STRESS PERIOD   2
    17 TOTAL ITERATIONS
0WARNING: NUMERICAL OSCILLATION ENCOUNTERED
 ONE OR MORE CELL CONCENTRATIONS LESS THAN CRHOREF
 SMALLEST DENSITY =  0.100E+04
 AT CELL (I,J,K) = (   3,  58,  27)

 
 SOLVING FOR HEAD 
 FLOW MODEL IS TRANSIENT
 FLOW MODEL CONTAINS CONSTANT-HEAD CELLS


 MAXIMUM STEPSIZE DURING WHICH ANY PARTICLE CANNOT MOVE MORE THAN ONE CELL
 = 0.1701    (WHEN MIN. R.F.=1)  AT K=   3, I=   2, J=  30

 MAXIMUM STEPSIZE WHICH MEETS STABILITY CRITERION OF THE ADVECTION TERM
 (FOR PURE FINITE-DIFFERENCE OPTION, MIXELM=0) 
 = 0.1348    (WHEN MIN. R.F.=1)  AT K=   3, I=   2, J=  31


 TOTAL NUMBER OF POINT SOURCES/SINKS PRESENT IN THE FLOW MODEL =   240

 MAXIMUM STEPSIZE WHICH MEETS STABILITY CRITERION OF THE SINK & SOURCE TERM
 = 0.1000E+31(WHEN MIN. R.F.=1)  AT K=   0, I=   0, J=   0

 MAXIMUM STEPSIZE WHICH MEETS STABILITY CRITERION OF THE DISPERSION TERM
 = 0.7288E-02(WHEN MIN. R.F.=1)  AT K=   3, I=   2, J=  30
     1 CALLS TO GCG PACKAGE FOR TRANSPORT TIME STEP   8 IN FLOW TIME STEP  25 STRESS PERIOD   2
    16 TOTAL ITERATIONS
  MAXIMUM CONCENTRATION CHANGES FOR EACH ITERATION:
  MAX. CHANGE LAYER,ROW,COL MAX. CHANGE LAYER,ROW,COL MAX. CHANGE LAYER,ROW,COL MAX. CHANGE LAYER,ROW,COL MAX. CHANGE LAYER,ROW,COL
 ------------------------------------------------------------------------------------------------------------------------------------
   0.2069E-02 ( 13,  1, 49)  0.3618E-03 (  7,  1, 59)  0.1368E-03 (  9,  1, 57)  0.5777E-04 (  5,  2, 53)  0.2796E-04 (  6,  1, 40)
   0.1840E-04 (  3,  2, 31)  0.1142E-04 (  3,  2, 30)  0.7955E-05 (  3,  2, 29)  0.4787E-05 (  3,  2, 32)  0.2773E-05 (  3,  2, 29)
   0.1453E-05 (  3,  2, 30)  0.8096E-06 (  3,  2, 31)  0.4741E-06 (  4,  3, 31)  0.2741E-06 (  3,  3, 31)  0.1374E-06 (  3,  2, 29)
   0.5783E-07 (  5,  2, 50)
0WARNING: NUMERICAL OSCILLATION ENCOUNTERED
 ONE OR MORE CELL CONCENTRATIONS LESS THAN CRHOREF
 SMALLEST DENSITY =  0.100E+04
 AT CELL (I,J,K) = (   3,  58,  27)



                                          ================================================
                                                         FROM TIME =   26.000     TO    27.000    

 
 SOLVING FOR HEAD 
 FLOW MODEL IS TRANSIENT
 FLOW MODEL CONTAINS CONSTANT-HEAD CELLS


 MAXIMUM STEPSIZE DURING WHICH ANY PARTICLE CANNOT MOVE MORE THAN ONE CELL
 = 0.1701    (WHEN MIN. R.F.=1)  AT K=   3, I=   2, J=  30

 MAXIMUM STEPSIZE WHICH MEETS STABILITY CRITERION OF THE ADVECTION TERM
 (FOR PURE FINITE-DIFFERENCE OPTION, MIXELM=0) 
 = 0.1348    (WHEN MIN. R.F.=1)  AT K=   3, I=   2, J=  31


 TOTAL NUMBER OF POINT SOURCES/SINKS PRESENT IN THE FLOW MODEL =   240

 MAXIMUM STEPSIZE WHICH MEETS STABILITY CRITERION OF THE SINK & SOURCE TERM
 = 0.1000E+31(WHEN MIN. R.F.=1)  AT K=   0, I=   0, J=   0

 MAXIMUM STEPSIZE WHICH MEETS STABILITY CRITERION OF THE DISPERSION TERM
 = 0.7288E-02(WHEN MIN. R.F.=1)  AT K=   3, I=   2, J=  30


     1 CALLS TO GCG PACKAGE FOR TRANSPORT TIME STEP   1 IN FLOW TIME STEP  26 STRESS PERIOD   2
    17 TOTAL ITERATIONS

 NO OUTPUT CONTROL FOR STRESS PERIOD    2   TIME STEP  26
0WARNING: NUMERICAL OSCILLATION ENCOUNTERED
 ONE OR MORE CELL CONCENTRATIONS LESS THAN CRHOREF
 SMALLEST DENSITY =  0.100E+04
 AT CELL (I,J,K) = (   3,  58,  27)

 
 SOLVING FOR HEAD 
 FLOW MODEL IS TRANSIENT
 FLOW MODEL CONTAINS CONSTANT-HEAD CELLS


 MAXIMUM STEPSIZE DURING WHICH ANY PARTICLE CANNOT MOVE MORE THAN ONE CELL
 = 0.1700    (WHEN MIN. R.F.=1)  AT K=   3, I=   2, J=  30

 MAXIMUM STEPSIZE WHICH MEETS STABILITY CRITERION OF THE ADVECTION TERM
 (FOR PURE FINITE-DIFFERENCE OPTION, MIXELM=0) 
 = 0.1348    (WHEN MIN. R.F.=1)  AT K=   3, I=   2, J=  31


 TOTAL NUMBER OF POINT SOURCES/SINKS PRESENT IN THE FLOW MODEL =   240

 MAXIMUM STEPSIZE WHICH MEETS STABILITY CRITERION OF THE SINK & SOURCE TERM
 = 0.1000E+31(WHEN MIN. R.F.=1)  AT K=   0, I=   0, J=   0

 MAXIMUM STEPSIZE WHICH MEETS STABILITY CRITERION OF THE DISPERSION TERM
 = 0.7288E-02(WHEN MIN. R.F.=1)  AT K=   3, I=   2, J=  30
     1 CALLS TO GCG PACKAGE FOR TRANSPORT TIME STEP   2 IN FLOW TIME STEP  26 STRESS PERIOD   2
    17 TOTAL ITERATIONS
0WARNING: NUMERICAL OSCILLATION ENCOUNTERED
 ONE OR MORE CELL CONCENTRATIONS LESS THAN CRHOREF
 SMALLEST DENSITY =  0.100E+04
 AT CELL (I,J,K) = (   3,  58,  27)

 
 SOLVING FOR HEAD 
 FLOW MODEL IS TRANSIENT
 FLOW MODEL CONTAINS CONSTANT-HEAD CELLS


 MAXIMUM STEPSIZE DURING WHICH ANY PARTICLE CANNOT MOVE MORE THAN ONE CELL
 = 0.1700    (WHEN MIN. R.F.=1)  AT K=   3, I=   2, J=  30

 MAXIMUM STEPSIZE WHICH MEETS STABILITY CRITERION OF THE ADVECTION TERM
 (FOR PURE FINITE-DIFFERENCE OPTION, MIXELM=0) 
 = 0.1348    (WHEN MIN. R.F.=1)  AT K=   3, I=   2, J=  31


 TOTAL NUMBER OF POINT SOURCES/SINKS PRESENT IN THE FLOW MODEL =   240

 MAXIMUM STEPSIZE WHICH MEETS STABILITY CRITERION OF THE SINK & SOURCE TERM
 = 0.1000E+31(WHEN MIN. R.F.=1)  AT K=   0, I=   0, J=   0

 MAXIMUM STEPSIZE WHICH MEETS STABILITY CRITERION OF THE DISPERSION TERM
 = 0.7288E-02(WHEN MIN. R.F.=1)  AT K=   3, I=   2, J=  30
     1 CALLS TO GCG PACKAGE FOR TRANSPORT TIME STEP   3 IN FLOW TIME STEP  26 STRESS PERIOD   2
    17 TOTAL ITERATIONS
0WARNING: NUMERICAL OSCILLATION ENCOUNTERED
 ONE OR MORE CELL CONCENTRATIONS LESS THAN CRHOREF
 SMALLEST DENSITY =  0.100E+04
 AT CELL (I,J,K) = (   3,  58,  27)

 
 SOLVING FOR HEAD 
 FLOW MODEL IS TRANSIENT
 FLOW MODEL CONTAINS CONSTANT-HEAD CELLS


 MAXIMUM STEPSIZE DURING WHICH ANY PARTICLE CANNOT MOVE MORE THAN ONE CELL
 = 0.1700    (WHEN MIN. R.F.=1)  AT K=   3, I=   2, J=  30

 MAXIMUM STEPSIZE WHICH MEETS STABILITY CRITERION OF THE ADVECTION TERM
 (FOR PURE FINITE-DIFFERENCE OPTION, MIXELM=0) 
 = 0.1348    (WHEN MIN. R.F.=1)  AT K=   3, I=   2, J=  31


 TOTAL NUMBER OF POINT SOURCES/SINKS PRESENT IN THE FLOW MODEL =   240

 MAXIMUM STEPSIZE WHICH MEETS STABILITY CRITERION OF THE SINK & SOURCE TERM
 = 0.1000E+31(WHEN MIN. R.F.=1)  AT K=   0, I=   0, J=   0

 MAXIMUM STEPSIZE WHICH MEETS STABILITY CRITERION OF THE DISPERSION TERM
 = 0.7288E-02(WHEN MIN. R.F.=1)  AT K=   3, I=   2, J=  30
     1 CALLS TO GCG PACKAGE FOR TRANSPORT TIME STEP   4 IN FLOW TIME STEP  26 STRESS PERIOD   2
    17 TOTAL ITERATIONS
0WARNING: NUMERICAL OSCILLATION ENCOUNTERED
 ONE OR MORE CELL CONCENTRATIONS LESS THAN CRHOREF
 SMALLEST DENSITY =  0.100E+04
 AT CELL (I,J,K) = (   3,  58,  27)

 
 SOLVING FOR HEAD 
 FLOW MODEL IS TRANSIENT
 FLOW MODEL CONTAINS CONSTANT-HEAD CELLS


 MAXIMUM STEPSIZE DURING WHICH ANY PARTICLE CANNOT MOVE MORE THAN ONE CELL
 = 0.1700    (WHEN MIN. R.F.=1)  AT K=   3, I=   2, J=  30

 MAXIMUM STEPSIZE WHICH MEETS STABILITY CRITERION OF THE ADVECTION TERM
 (FOR PURE FINITE-DIFFERENCE OPTION, MIXELM=0) 
 = 0.1348    (WHEN MIN. R.F.=1)  AT K=   3, I=   2, J=  31


 TOTAL NUMBER OF POINT SOURCES/SINKS PRESENT IN THE FLOW MODEL =   240

 MAXIMUM STEPSIZE WHICH MEETS STABILITY CRITERION OF THE SINK & SOURCE TERM
 = 0.1000E+31(WHEN MIN. R.F.=1)  AT K=   0, I=   0, J=   0

 MAXIMUM STEPSIZE WHICH MEETS STABILITY CRITERION OF THE DISPERSION TERM
 = 0.7288E-02(WHEN MIN. R.F.=1)  AT K=   3, I=   2, J=  30
     1 CALLS TO GCG PACKAGE FOR TRANSPORT TIME STEP   5 IN FLOW TIME STEP  26 STRESS PERIOD   2
    17 TOTAL ITERATIONS
0WARNING: NUMERICAL OSCILLATION ENCOUNTERED
 ONE OR MORE CELL CONCENTRATIONS LESS THAN CRHOREF
 SMALLEST DENSITY =  0.100E+04
 AT CELL (I,J,K) = (   3,  58,  27)

 
 SOLVING FOR HEAD 
 FLOW MODEL IS TRANSIENT
 FLOW MODEL CONTAINS CONSTANT-HEAD CELLS


 MAXIMUM STEPSIZE DURING WHICH ANY PARTICLE CANNOT MOVE MORE THAN ONE CELL
 = 0.1700    (WHEN MIN. R.F.=1)  AT K=   3, I=   2, J=  30

 MAXIMUM STEPSIZE WHICH MEETS STABILITY CRITERION OF THE ADVECTION TERM
 (FOR PURE FINITE-DIFFERENCE OPTION, MIXELM=0) 
 = 0.1348    (WHEN MIN. R.F.=1)  AT K=   3, I=   2, J=  31


 TOTAL NUMBER OF POINT SOURCES/SINKS PRESENT IN THE FLOW MODEL =   240

 MAXIMUM STEPSIZE WHICH MEETS STABILITY CRITERION OF THE SINK & SOURCE TERM
 = 0.1000E+31(WHEN MIN. R.F.=1)  AT K=   0, I=   0, J=   0

 MAXIMUM STEPSIZE WHICH MEETS STABILITY CRITERION OF THE DISPERSION TERM
 = 0.7288E-02(WHEN MIN. R.F.=1)  AT K=   3, I=   2, J=  30
     1 CALLS TO GCG PACKAGE FOR TRANSPORT TIME STEP   6 IN FLOW TIME STEP  26 STRESS PERIOD   2
    17 TOTAL ITERATIONS
0WARNING: NUMERICAL OSCILLATION ENCOUNTERED
 ONE OR MORE CELL CONCENTRATIONS LESS THAN CRHOREF
 SMALLEST DENSITY =  0.100E+04
 AT CELL (I,J,K) = (   3,  58,  27)

 
 SOLVING FOR HEAD 
 FLOW MODEL IS TRANSIENT
 FLOW MODEL CONTAINS CONSTANT-HEAD CELLS


 MAXIMUM STEPSIZE DURING WHICH ANY PARTICLE CANNOT MOVE MORE THAN ONE CELL
 = 0.1700    (WHEN MIN. R.F.=1)  AT K=   3, I=   2, J=  30

 MAXIMUM STEPSIZE WHICH MEETS STABILITY CRITERION OF THE ADVECTION TERM
 (FOR PURE FINITE-DIFFERENCE OPTION, MIXELM=0) 
 = 0.1348    (WHEN MIN. R.F.=1)  AT K=   3, I=   2, J=  31


 TOTAL NUMBER OF POINT SOURCES/SINKS PRESENT IN THE FLOW MODEL =   240

 MAXIMUM STEPSIZE WHICH MEETS STABILITY CRITERION OF THE SINK & SOURCE TERM
 = 0.1000E+31(WHEN MIN. R.F.=1)  AT K=   0, I=   0, J=   0

 MAXIMUM STEPSIZE WHICH MEETS STABILITY CRITERION OF THE DISPERSION TERM
 = 0.7288E-02(WHEN MIN. R.F.=1)  AT K=   3, I=   2, J=  30
     1 CALLS TO GCG PACKAGE FOR TRANSPORT TIME STEP   7 IN FLOW TIME STEP  26 STRESS PERIOD   2
    17 TOTAL ITERATIONS
0WARNING: NUMERICAL OSCILLATION ENCOUNTERED
 ONE OR MORE CELL CONCENTRATIONS LESS THAN CRHOREF
 SMALLEST DENSITY =  0.100E+04
 AT CELL (I,J,K) = (   3,  58,  27)

 
 SOLVING FOR HEAD 
 FLOW MODEL IS TRANSIENT
 FLOW MODEL CONTAINS CONSTANT-HEAD CELLS


 MAXIMUM STEPSIZE DURING WHICH ANY PARTICLE CANNOT MOVE MORE THAN ONE CELL
 = 0.1700    (WHEN MIN. R.F.=1)  AT K=   3, I=   2, J=  30

 MAXIMUM STEPSIZE WHICH MEETS STABILITY CRITERION OF THE ADVECTION TERM
 (FOR PURE FINITE-DIFFERENCE OPTION, MIXELM=0) 
 = 0.1348    (WHEN MIN. R.F.=1)  AT K=   3, I=   2, J=  31


 TOTAL NUMBER OF POINT SOURCES/SINKS PRESENT IN THE FLOW MODEL =   240

 MAXIMUM STEPSIZE WHICH MEETS STABILITY CRITERION OF THE SINK & SOURCE TERM
 = 0.1000E+31(WHEN MIN. R.F.=1)  AT K=   0, I=   0, J=   0

 MAXIMUM STEPSIZE WHICH MEETS STABILITY CRITERION OF THE DISPERSION TERM
 = 0.7287E-02(WHEN MIN. R.F.=1)  AT K=   3, I=   2, J=  30
     1 CALLS TO GCG PACKAGE FOR TRANSPORT TIME STEP   8 IN FLOW TIME STEP  26 STRESS PERIOD   2
    16 TOTAL ITERATIONS
  MAXIMUM CONCENTRATION CHANGES FOR EACH ITERATION:
  MAX. CHANGE LAYER,ROW,COL MAX. CHANGE LAYER,ROW,COL MAX. CHANGE LAYER,ROW,COL MAX. CHANGE LAYER,ROW,COL MAX. CHANGE LAYER,ROW,COL
 ------------------------------------------------------------------------------------------------------------------------------------
   0.1974E-02 ( 13,  1, 50)  0.3471E-03 (  7,  1, 59)  0.1282E-03 (  9,  1, 57)  0.5415E-04 (  5,  2, 53)  0.2563E-04 (  6,  1, 40)
   0.1706E-04 (  3,  2, 31)  0.1060E-04 (  3,  2, 30)  0.7395E-05 (  3,  2, 29)  0.4447E-05 (  3,  2, 32)  0.2581E-05 (  3,  2, 29)
   0.1352E-05 (  3,  2, 30)  0.7511E-06 (  3,  2, 31)  0.4416E-06 (  4,  3, 31)  0.2552E-06 (  3,  3, 31)  0.1284E-06 (  3,  2, 29)
   0.5393E-07 (  5,  2, 50)
0WARNING: NUMERICAL OSCILLATION ENCOUNTERED
 ONE OR MORE CELL CONCENTRATIONS LESS THAN CRHOREF
 SMALLEST DENSITY =  0.100E+04
 AT CELL (I,J,K) = (   3,  58,  27)



                                          ================================================
                                                         FROM TIME =   27.000     TO    28.000    

 
 SOLVING FOR HEAD 
 FLOW MODEL IS TRANSIENT
 FLOW MODEL CONTAINS CONSTANT-HEAD CELLS


 MAXIMUM STEPSIZE DURING WHICH ANY PARTICLE CANNOT MOVE MORE THAN ONE CELL
 = 0.1700    (WHEN MIN. R.F.=1)  AT K=   3, I=   2, J=  30

 MAXIMUM STEPSIZE WHICH MEETS STABILITY CRITERION OF THE ADVECTION TERM
 (FOR PURE FINITE-DIFFERENCE OPTION, MIXELM=0) 
 = 0.1348    (WHEN MIN. R.F.=1)  AT K=   3, I=   2, J=  31


 TOTAL NUMBER OF POINT SOURCES/SINKS PRESENT IN THE FLOW MODEL =   240

 MAXIMUM STEPSIZE WHICH MEETS STABILITY CRITERION OF THE SINK & SOURCE TERM
 = 0.1000E+31(WHEN MIN. R.F.=1)  AT K=   0, I=   0, J=   0

 MAXIMUM STEPSIZE WHICH MEETS STABILITY CRITERION OF THE DISPERSION TERM
 = 0.7287E-02(WHEN MIN. R.F.=1)  AT K=   3, I=   2, J=  30


     1 CALLS TO GCG PACKAGE FOR TRANSPORT TIME STEP   1 IN FLOW TIME STEP  27 STRESS PERIOD   2
    17 TOTAL ITERATIONS

 NO OUTPUT CONTROL FOR STRESS PERIOD    2   TIME STEP  27
0WARNING: NUMERICAL OSCILLATION ENCOUNTERED
 ONE OR MORE CELL CONCENTRATIONS LESS THAN CRHOREF
 SMALLEST DENSITY =  0.100E+04
 AT CELL (I,J,K) = (   3,  58,  27)

 
 SOLVING FOR HEAD 
 FLOW MODEL IS TRANSIENT
 FLOW MODEL CONTAINS CONSTANT-HEAD CELLS


 MAXIMUM STEPSIZE DURING WHICH ANY PARTICLE CANNOT MOVE MORE THAN ONE CELL
 = 0.1700    (WHEN MIN. R.F.=1)  AT K=   3, I=   2, J=  30

 MAXIMUM STEPSIZE WHICH MEETS STABILITY CRITERION OF THE ADVECTION TERM
 (FOR PURE FINITE-DIFFERENCE OPTION, MIXELM=0) 
 = 0.1348    (WHEN MIN. R.F.=1)  AT K=   3, I=   2, J=  31


 TOTAL NUMBER OF POINT SOURCES/SINKS PRESENT IN THE FLOW MODEL =   240

 MAXIMUM STEPSIZE WHICH MEETS STABILITY CRITERION OF THE SINK & SOURCE TERM
 = 0.1000E+31(WHEN MIN. R.F.=1)  AT K=   0, I=   0, J=   0

 MAXIMUM STEPSIZE WHICH MEETS STABILITY CRITERION OF THE DISPERSION TERM
 = 0.7287E-02(WHEN MIN. R.F.=1)  AT K=   3, I=   2, J=  30
     1 CALLS TO GCG PACKAGE FOR TRANSPORT TIME STEP   2 IN FLOW TIME STEP  27 STRESS PERIOD   2
    17 TOTAL ITERATIONS
0WARNING: NUMERICAL OSCILLATION ENCOUNTERED
 ONE OR MORE CELL CONCENTRATIONS LESS THAN CRHOREF
 SMALLEST DENSITY =  0.100E+04
 AT CELL (I,J,K) = (   3,  58,  27)

 
 SOLVING FOR HEAD 
 FLOW MODEL IS TRANSIENT
 FLOW MODEL CONTAINS CONSTANT-HEAD CELLS


 MAXIMUM STEPSIZE DURING WHICH ANY PARTICLE CANNOT MOVE MORE THAN ONE CELL
 = 0.1700    (WHEN MIN. R.F.=1)  AT K=   3, I=   2, J=  30

 MAXIMUM STEPSIZE WHICH MEETS STABILITY CRITERION OF THE ADVECTION TERM
 (FOR PURE FINITE-DIFFERENCE OPTION, MIXELM=0) 
 = 0.1348    (WHEN MIN. R.F.=1)  AT K=   3, I=   2, J=  31


 TOTAL NUMBER OF POINT SOURCES/SINKS PRESENT IN THE FLOW MODEL =   240

 MAXIMUM STEPSIZE WHICH MEETS STABILITY CRITERION OF THE SINK & SOURCE TERM
 = 0.1000E+31(WHEN MIN. R.F.=1)  AT K=   0, I=   0, J=   0

 MAXIMUM STEPSIZE WHICH MEETS STABILITY CRITERION OF THE DISPERSION TERM
 = 0.7287E-02(WHEN MIN. R.F.=1)  AT K=   3, I=   2, J=  30
     1 CALLS TO GCG PACKAGE FOR TRANSPORT TIME STEP   3 IN FLOW TIME STEP  27 STRESS PERIOD   2
    17 TOTAL ITERATIONS
0WARNING: NUMERICAL OSCILLATION ENCOUNTERED
 ONE OR MORE CELL CONCENTRATIONS LESS THAN CRHOREF
 SMALLEST DENSITY =  0.100E+04
 AT CELL (I,J,K) = (   3,  58,  27)

 
 SOLVING FOR HEAD 
 FLOW MODEL IS TRANSIENT
 FLOW MODEL CONTAINS CONSTANT-HEAD CELLS


 MAXIMUM STEPSIZE DURING WHICH ANY PARTICLE CANNOT MOVE MORE THAN ONE CELL
 = 0.1700    (WHEN MIN. R.F.=1)  AT K=   3, I=   2, J=  30

 MAXIMUM STEPSIZE WHICH MEETS STABILITY CRITERION OF THE ADVECTION TERM
 (FOR PURE FINITE-DIFFERENCE OPTION, MIXELM=0) 
 = 0.1348    (WHEN MIN. R.F.=1)  AT K=   3, I=   2, J=  31


 TOTAL NUMBER OF POINT SOURCES/SINKS PRESENT IN THE FLOW MODEL =   240

 MAXIMUM STEPSIZE WHICH MEETS STABILITY CRITERION OF THE SINK & SOURCE TERM
 = 0.1000E+31(WHEN MIN. R.F.=1)  AT K=   0, I=   0, J=   0

 MAXIMUM STEPSIZE WHICH MEETS STABILITY CRITERION OF THE DISPERSION TERM
 = 0.7287E-02(WHEN MIN. R.F.=1)  AT K=   3, I=   2, J=  30
     1 CALLS TO GCG PACKAGE FOR TRANSPORT TIME STEP   4 IN FLOW TIME STEP  27 STRESS PERIOD   2
    17 TOTAL ITERATIONS
0WARNING: NUMERICAL OSCILLATION ENCOUNTERED
 ONE OR MORE CELL CONCENTRATIONS LESS THAN CRHOREF
 SMALLEST DENSITY =  0.100E+04
 AT CELL (I,J,K) = (   3,  58,  27)

 
 SOLVING FOR HEAD 
 FLOW MODEL IS TRANSIENT
 FLOW MODEL CONTAINS CONSTANT-HEAD CELLS


 MAXIMUM STEPSIZE DURING WHICH ANY PARTICLE CANNOT MOVE MORE THAN ONE CELL
 = 0.1700    (WHEN MIN. R.F.=1)  AT K=   3, I=   2, J=  30

 MAXIMUM STEPSIZE WHICH MEETS STABILITY CRITERION OF THE ADVECTION TERM
 (FOR PURE FINITE-DIFFERENCE OPTION, MIXELM=0) 
 = 0.1348    (WHEN MIN. R.F.=1)  AT K=   3, I=   2, J=  31


 TOTAL NUMBER OF POINT SOURCES/SINKS PRESENT IN THE FLOW MODEL =   240

 MAXIMUM STEPSIZE WHICH MEETS STABILITY CRITERION OF THE SINK & SOURCE TERM
 = 0.1000E+31(WHEN MIN. R.F.=1)  AT K=   0, I=   0, J=   0

 MAXIMUM STEPSIZE WHICH MEETS STABILITY CRITERION OF THE DISPERSION TERM
 = 0.7287E-02(WHEN MIN. R.F.=1)  AT K=   3, I=   2, J=  30
     1 CALLS TO GCG PACKAGE FOR TRANSPORT TIME STEP   5 IN FLOW TIME STEP  27 STRESS PERIOD   2
    17 TOTAL ITERATIONS
0WARNING: NUMERICAL OSCILLATION ENCOUNTERED
 ONE OR MORE CELL CONCENTRATIONS LESS THAN CRHOREF
 SMALLEST DENSITY =  0.100E+04
 AT CELL (I,J,K) = (   3,  58,  27)

 
 SOLVING FOR HEAD 
 FLOW MODEL IS TRANSIENT
 FLOW MODEL CONTAINS CONSTANT-HEAD CELLS


 MAXIMUM STEPSIZE DURING WHICH ANY PARTICLE CANNOT MOVE MORE THAN ONE CELL
 = 0.1700    (WHEN MIN. R.F.=1)  AT K=   3, I=   2, J=  30

 MAXIMUM STEPSIZE WHICH MEETS STABILITY CRITERION OF THE ADVECTION TERM
 (FOR PURE FINITE-DIFFERENCE OPTION, MIXELM=0) 
 = 0.1348    (WHEN MIN. R.F.=1)  AT K=   3, I=   2, J=  31


 TOTAL NUMBER OF POINT SOURCES/SINKS PRESENT IN THE FLOW MODEL =   240

 MAXIMUM STEPSIZE WHICH MEETS STABILITY CRITERION OF THE SINK & SOURCE TERM
 = 0.1000E+31(WHEN MIN. R.F.=1)  AT K=   0, I=   0, J=   0

 MAXIMUM STEPSIZE WHICH MEETS STABILITY CRITERION OF THE DISPERSION TERM
 = 0.7287E-02(WHEN MIN. R.F.=1)  AT K=   3, I=   2, J=  30
     1 CALLS TO GCG PACKAGE FOR TRANSPORT TIME STEP   6 IN FLOW TIME STEP  27 STRESS PERIOD   2
    17 TOTAL ITERATIONS
0WARNING: NUMERICAL OSCILLATION ENCOUNTERED
 ONE OR MORE CELL CONCENTRATIONS LESS THAN CRHOREF
 SMALLEST DENSITY =  0.100E+04
 AT CELL (I,J,K) = (   3,  58,  27)

 
 SOLVING FOR HEAD 
 FLOW MODEL IS TRANSIENT
 FLOW MODEL CONTAINS CONSTANT-HEAD CELLS


 MAXIMUM STEPSIZE DURING WHICH ANY PARTICLE CANNOT MOVE MORE THAN ONE CELL
 = 0.1700    (WHEN MIN. R.F.=1)  AT K=   3, I=   2, J=  30

 MAXIMUM STEPSIZE WHICH MEETS STABILITY CRITERION OF THE ADVECTION TERM
 (FOR PURE FINITE-DIFFERENCE OPTION, MIXELM=0) 
 = 0.1348    (WHEN MIN. R.F.=1)  AT K=   3, I=   2, J=  31


 TOTAL NUMBER OF POINT SOURCES/SINKS PRESENT IN THE FLOW MODEL =   240

 MAXIMUM STEPSIZE WHICH MEETS STABILITY CRITERION OF THE SINK & SOURCE TERM
 = 0.1000E+31(WHEN MIN. R.F.=1)  AT K=   0, I=   0, J=   0

 MAXIMUM STEPSIZE WHICH MEETS STABILITY CRITERION OF THE DISPERSION TERM
 = 0.7287E-02(WHEN MIN. R.F.=1)  AT K=   3, I=   2, J=  30
     1 CALLS TO GCG PACKAGE FOR TRANSPORT TIME STEP   7 IN FLOW TIME STEP  27 STRESS PERIOD   2
    17 TOTAL ITERATIONS
0WARNING: NUMERICAL OSCILLATION ENCOUNTERED
 ONE OR MORE CELL CONCENTRATIONS LESS THAN CRHOREF
 SMALLEST DENSITY =  0.100E+04
 AT CELL (I,J,K) = (   3,  58,  27)

 
 SOLVING FOR HEAD 
 FLOW MODEL IS TRANSIENT
 FLOW MODEL CONTAINS CONSTANT-HEAD CELLS


 MAXIMUM STEPSIZE DURING WHICH ANY PARTICLE CANNOT MOVE MORE THAN ONE CELL
 = 0.1700    (WHEN MIN. R.F.=1)  AT K=   3, I=   2, J=  30

 MAXIMUM STEPSIZE WHICH MEETS STABILITY CRITERION OF THE ADVECTION TERM
 (FOR PURE FINITE-DIFFERENCE OPTION, MIXELM=0) 
 = 0.1348    (WHEN MIN. R.F.=1)  AT K=   3, I=   2, J=  31


 TOTAL NUMBER OF POINT SOURCES/SINKS PRESENT IN THE FLOW MODEL =   240

 MAXIMUM STEPSIZE WHICH MEETS STABILITY CRITERION OF THE SINK & SOURCE TERM
 = 0.1000E+31(WHEN MIN. R.F.=1)  AT K=   0, I=   0, J=   0

 MAXIMUM STEPSIZE WHICH MEETS STABILITY CRITERION OF THE DISPERSION TERM
 = 0.7287E-02(WHEN MIN. R.F.=1)  AT K=   3, I=   2, J=  30
     1 CALLS TO GCG PACKAGE FOR TRANSPORT TIME STEP   8 IN FLOW TIME STEP  27 STRESS PERIOD   2
    16 TOTAL ITERATIONS
  MAXIMUM CONCENTRATION CHANGES FOR EACH ITERATION:
  MAX. CHANGE LAYER,ROW,COL MAX. CHANGE LAYER,ROW,COL MAX. CHANGE LAYER,ROW,COL MAX. CHANGE LAYER,ROW,COL MAX. CHANGE LAYER,ROW,COL
 ------------------------------------------------------------------------------------------------------------------------------------
   0.1882E-02 ( 13,  1, 50)  0.3331E-03 (  7,  1, 59)  0.1201E-03 (  9,  1, 57)  0.5086E-04 (  5,  2, 53)  0.2355E-04 (  6,  1, 40)
   0.1585E-04 (  3,  2, 31)  0.9861E-05 (  3,  2, 30)  0.6888E-05 (  3,  2, 29)  0.4141E-05 (  3,  2, 32)  0.2407E-05 (  3,  2, 29)
   0.1261E-05 (  3,  2, 30)  0.6983E-06 (  3,  3, 33)  0.4123E-06 (  4,  3, 31)  0.2381E-06 (  3,  3, 31)  0.1203E-06 (  3,  2, 29)
   0.5037E-07 (  5,  2, 50)
0WARNING: NUMERICAL OSCILLATION ENCOUNTERED
 ONE OR MORE CELL CONCENTRATIONS LESS THAN CRHOREF
 SMALLEST DENSITY =  0.100E+04
 AT CELL (I,J,K) = (   3,  58,  27)



                                          ================================================
                                                         FROM TIME =   28.000     TO    29.000    

 
 SOLVING FOR HEAD 
 FLOW MODEL IS TRANSIENT
 FLOW MODEL CONTAINS CONSTANT-HEAD CELLS


 MAXIMUM STEPSIZE DURING WHICH ANY PARTICLE CANNOT MOVE MORE THAN ONE CELL
 = 0.1700    (WHEN MIN. R.F.=1)  AT K=   3, I=   2, J=  30

 MAXIMUM STEPSIZE WHICH MEETS STABILITY CRITERION OF THE ADVECTION TERM
 (FOR PURE FINITE-DIFFERENCE OPTION, MIXELM=0) 
 = 0.1348    (WHEN MIN. R.F.=1)  AT K=   3, I=   2, J=  31


 TOTAL NUMBER OF POINT SOURCES/SINKS PRESENT IN THE FLOW MODEL =   240

 MAXIMUM STEPSIZE WHICH MEETS STABILITY CRITERION OF THE SINK & SOURCE TERM
 = 0.1000E+31(WHEN MIN. R.F.=1)  AT K=   0, I=   0, J=   0

 MAXIMUM STEPSIZE WHICH MEETS STABILITY CRITERION OF THE DISPERSION TERM
 = 0.7287E-02(WHEN MIN. R.F.=1)  AT K=   3, I=   2, J=  30


     1 CALLS TO GCG PACKAGE FOR TRANSPORT TIME STEP   1 IN FLOW TIME STEP  28 STRESS PERIOD   2
    17 TOTAL ITERATIONS

 NO OUTPUT CONTROL FOR STRESS PERIOD    2   TIME STEP  28
0WARNING: NUMERICAL OSCILLATION ENCOUNTERED
 ONE OR MORE CELL CONCENTRATIONS LESS THAN CRHOREF
 SMALLEST DENSITY =  0.100E+04
 AT CELL (I,J,K) = (   3,  58,  27)

 
 SOLVING FOR HEAD 
 FLOW MODEL IS TRANSIENT
 FLOW MODEL CONTAINS CONSTANT-HEAD CELLS


 MAXIMUM STEPSIZE DURING WHICH ANY PARTICLE CANNOT MOVE MORE THAN ONE CELL
 = 0.1700    (WHEN MIN. R.F.=1)  AT K=   3, I=   2, J=  30

 MAXIMUM STEPSIZE WHICH MEETS STABILITY CRITERION OF THE ADVECTION TERM
 (FOR PURE FINITE-DIFFERENCE OPTION, MIXELM=0) 
 = 0.1348    (WHEN MIN. R.F.=1)  AT K=   3, I=   2, J=  31


 TOTAL NUMBER OF POINT SOURCES/SINKS PRESENT IN THE FLOW MODEL =   240

 MAXIMUM STEPSIZE WHICH MEETS STABILITY CRITERION OF THE SINK & SOURCE TERM
 = 0.1000E+31(WHEN MIN. R.F.=1)  AT K=   0, I=   0, J=   0

 MAXIMUM STEPSIZE WHICH MEETS STABILITY CRITERION OF THE DISPERSION TERM
 = 0.7287E-02(WHEN MIN. R.F.=1)  AT K=   3, I=   2, J=  30
     1 CALLS TO GCG PACKAGE FOR TRANSPORT TIME STEP   2 IN FLOW TIME STEP  28 STRESS PERIOD   2
    17 TOTAL ITERATIONS
0WARNING: NUMERICAL OSCILLATION ENCOUNTERED
 ONE OR MORE CELL CONCENTRATIONS LESS THAN CRHOREF
 SMALLEST DENSITY =  0.100E+04
 AT CELL (I,J,K) = (   3,  58,  27)

 
 SOLVING FOR HEAD 
 FLOW MODEL IS TRANSIENT
 FLOW MODEL CONTAINS CONSTANT-HEAD CELLS


 MAXIMUM STEPSIZE DURING WHICH ANY PARTICLE CANNOT MOVE MORE THAN ONE CELL
 = 0.1700    (WHEN MIN. R.F.=1)  AT K=   3, I=   2, J=  30

 MAXIMUM STEPSIZE WHICH MEETS STABILITY CRITERION OF THE ADVECTION TERM
 (FOR PURE FINITE-DIFFERENCE OPTION, MIXELM=0) 
 = 0.1348    (WHEN MIN. R.F.=1)  AT K=   3, I=   2, J=  31


 TOTAL NUMBER OF POINT SOURCES/SINKS PRESENT IN THE FLOW MODEL =   240

 MAXIMUM STEPSIZE WHICH MEETS STABILITY CRITERION OF THE SINK & SOURCE TERM
 = 0.1000E+31(WHEN MIN. R.F.=1)  AT K=   0, I=   0, J=   0

 MAXIMUM STEPSIZE WHICH MEETS STABILITY CRITERION OF THE DISPERSION TERM
 = 0.7287E-02(WHEN MIN. R.F.=1)  AT K=   3, I=   2, J=  30
     1 CALLS TO GCG PACKAGE FOR TRANSPORT TIME STEP   3 IN FLOW TIME STEP  28 STRESS PERIOD   2
    17 TOTAL ITERATIONS
0WARNING: NUMERICAL OSCILLATION ENCOUNTERED
 ONE OR MORE CELL CONCENTRATIONS LESS THAN CRHOREF
 SMALLEST DENSITY =  0.100E+04
 AT CELL (I,J,K) = (   3,  59,  27)

 
 SOLVING FOR HEAD 
 FLOW MODEL IS TRANSIENT
 FLOW MODEL CONTAINS CONSTANT-HEAD CELLS


 MAXIMUM STEPSIZE DURING WHICH ANY PARTICLE CANNOT MOVE MORE THAN ONE CELL
 = 0.1700    (WHEN MIN. R.F.=1)  AT K=   3, I=   2, J=  30

 MAXIMUM STEPSIZE WHICH MEETS STABILITY CRITERION OF THE ADVECTION TERM
 (FOR PURE FINITE-DIFFERENCE OPTION, MIXELM=0) 
 = 0.1348    (WHEN MIN. R.F.=1)  AT K=   3, I=   2, J=  31


 TOTAL NUMBER OF POINT SOURCES/SINKS PRESENT IN THE FLOW MODEL =   240

 MAXIMUM STEPSIZE WHICH MEETS STABILITY CRITERION OF THE SINK & SOURCE TERM
 = 0.1000E+31(WHEN MIN. R.F.=1)  AT K=   0, I=   0, J=   0

 MAXIMUM STEPSIZE WHICH MEETS STABILITY CRITERION OF THE DISPERSION TERM
 = 0.7287E-02(WHEN MIN. R.F.=1)  AT K=   3, I=   2, J=  30
     1 CALLS TO GCG PACKAGE FOR TRANSPORT TIME STEP   4 IN FLOW TIME STEP  28 STRESS PERIOD   2
    17 TOTAL ITERATIONS
0WARNING: NUMERICAL OSCILLATION ENCOUNTERED
 ONE OR MORE CELL CONCENTRATIONS LESS THAN CRHOREF
 SMALLEST DENSITY =  0.100E+04
 AT CELL (I,J,K) = (   3,  59,  27)

 
 SOLVING FOR HEAD 
 FLOW MODEL IS TRANSIENT
 FLOW MODEL CONTAINS CONSTANT-HEAD CELLS


 MAXIMUM STEPSIZE DURING WHICH ANY PARTICLE CANNOT MOVE MORE THAN ONE CELL
 = 0.1700    (WHEN MIN. R.F.=1)  AT K=   3, I=   2, J=  30

 MAXIMUM STEPSIZE WHICH MEETS STABILITY CRITERION OF THE ADVECTION TERM
 (FOR PURE FINITE-DIFFERENCE OPTION, MIXELM=0) 
 = 0.1348    (WHEN MIN. R.F.=1)  AT K=   3, I=   2, J=  31


 TOTAL NUMBER OF POINT SOURCES/SINKS PRESENT IN THE FLOW MODEL =   240

 MAXIMUM STEPSIZE WHICH MEETS STABILITY CRITERION OF THE SINK & SOURCE TERM
 = 0.1000E+31(WHEN MIN. R.F.=1)  AT K=   0, I=   0, J=   0

 MAXIMUM STEPSIZE WHICH MEETS STABILITY CRITERION OF THE DISPERSION TERM
 = 0.7287E-02(WHEN MIN. R.F.=1)  AT K=   3, I=   2, J=  30
     1 CALLS TO GCG PACKAGE FOR TRANSPORT TIME STEP   5 IN FLOW TIME STEP  28 STRESS PERIOD   2
    17 TOTAL ITERATIONS
0WARNING: NUMERICAL OSCILLATION ENCOUNTERED
 ONE OR MORE CELL CONCENTRATIONS LESS THAN CRHOREF
 SMALLEST DENSITY =  0.100E+04
 AT CELL (I,J,K) = (   3,  59,  27)

 
 SOLVING FOR HEAD 
 FLOW MODEL IS TRANSIENT
 FLOW MODEL CONTAINS CONSTANT-HEAD CELLS


 MAXIMUM STEPSIZE DURING WHICH ANY PARTICLE CANNOT MOVE MORE THAN ONE CELL
 = 0.1700    (WHEN MIN. R.F.=1)  AT K=   3, I=   2, J=  30

 MAXIMUM STEPSIZE WHICH MEETS STABILITY CRITERION OF THE ADVECTION TERM
 (FOR PURE FINITE-DIFFERENCE OPTION, MIXELM=0) 
 = 0.1348    (WHEN MIN. R.F.=1)  AT K=   3, I=   2, J=  31


 TOTAL NUMBER OF POINT SOURCES/SINKS PRESENT IN THE FLOW MODEL =   240

 MAXIMUM STEPSIZE WHICH MEETS STABILITY CRITERION OF THE SINK & SOURCE TERM
 = 0.1000E+31(WHEN MIN. R.F.=1)  AT K=   0, I=   0, J=   0

 MAXIMUM STEPSIZE WHICH MEETS STABILITY CRITERION OF THE DISPERSION TERM
 = 0.7287E-02(WHEN MIN. R.F.=1)  AT K=   3, I=   2, J=  30
     1 CALLS TO GCG PACKAGE FOR TRANSPORT TIME STEP   6 IN FLOW TIME STEP  28 STRESS PERIOD   2
    17 TOTAL ITERATIONS
0WARNING: NUMERICAL OSCILLATION ENCOUNTERED
 ONE OR MORE CELL CONCENTRATIONS LESS THAN CRHOREF
 SMALLEST DENSITY =  0.100E+04
 AT CELL (I,J,K) = (   3,  59,  27)

 
 SOLVING FOR HEAD 
 FLOW MODEL IS TRANSIENT
 FLOW MODEL CONTAINS CONSTANT-HEAD CELLS


 MAXIMUM STEPSIZE DURING WHICH ANY PARTICLE CANNOT MOVE MORE THAN ONE CELL
 = 0.1700    (WHEN MIN. R.F.=1)  AT K=   3, I=   2, J=  30

 MAXIMUM STEPSIZE WHICH MEETS STABILITY CRITERION OF THE ADVECTION TERM
 (FOR PURE FINITE-DIFFERENCE OPTION, MIXELM=0) 
 = 0.1348    (WHEN MIN. R.F.=1)  AT K=   3, I=   2, J=  31


 TOTAL NUMBER OF POINT SOURCES/SINKS PRESENT IN THE FLOW MODEL =   240

 MAXIMUM STEPSIZE WHICH MEETS STABILITY CRITERION OF THE SINK & SOURCE TERM
 = 0.1000E+31(WHEN MIN. R.F.=1)  AT K=   0, I=   0, J=   0

 MAXIMUM STEPSIZE WHICH MEETS STABILITY CRITERION OF THE DISPERSION TERM
 = 0.7287E-02(WHEN MIN. R.F.=1)  AT K=   3, I=   2, J=  30
     1 CALLS TO GCG PACKAGE FOR TRANSPORT TIME STEP   7 IN FLOW TIME STEP  28 STRESS PERIOD   2
    17 TOTAL ITERATIONS
0WARNING: NUMERICAL OSCILLATION ENCOUNTERED
 ONE OR MORE CELL CONCENTRATIONS LESS THAN CRHOREF
 SMALLEST DENSITY =  0.100E+04
 AT CELL (I,J,K) = (   3,  59,  27)

 
 SOLVING FOR HEAD 
 FLOW MODEL IS TRANSIENT
 FLOW MODEL CONTAINS CONSTANT-HEAD CELLS


 MAXIMUM STEPSIZE DURING WHICH ANY PARTICLE CANNOT MOVE MORE THAN ONE CELL
 = 0.1700    (WHEN MIN. R.F.=1)  AT K=   3, I=   2, J=  30

 MAXIMUM STEPSIZE WHICH MEETS STABILITY CRITERION OF THE ADVECTION TERM
 (FOR PURE FINITE-DIFFERENCE OPTION, MIXELM=0) 
 = 0.1348    (WHEN MIN. R.F.=1)  AT K=   3, I=   2, J=  31


 TOTAL NUMBER OF POINT SOURCES/SINKS PRESENT IN THE FLOW MODEL =   240

 MAXIMUM STEPSIZE WHICH MEETS STABILITY CRITERION OF THE SINK & SOURCE TERM
 = 0.1000E+31(WHEN MIN. R.F.=1)  AT K=   0, I=   0, J=   0

 MAXIMUM STEPSIZE WHICH MEETS STABILITY CRITERION OF THE DISPERSION TERM
 = 0.7287E-02(WHEN MIN. R.F.=1)  AT K=   3, I=   2, J=  30
     1 CALLS TO GCG PACKAGE FOR TRANSPORT TIME STEP   8 IN FLOW TIME STEP  28 STRESS PERIOD   2
    16 TOTAL ITERATIONS
  MAXIMUM CONCENTRATION CHANGES FOR EACH ITERATION:
  MAX. CHANGE LAYER,ROW,COL MAX. CHANGE LAYER,ROW,COL MAX. CHANGE LAYER,ROW,COL MAX. CHANGE LAYER,ROW,COL MAX. CHANGE LAYER,ROW,COL
 ------------------------------------------------------------------------------------------------------------------------------------
   0.1793E-02 ( 13,  1, 50)  0.3197E-03 (  7,  1, 59)  0.1127E-03 (  9,  1, 57)  0.4784E-04 (  5,  2, 53)  0.2168E-04 (  6,  1, 40)
   0.1476E-04 (  3,  2, 31)  0.9195E-05 (  3,  2, 30)  0.6427E-05 (  3,  2, 29)  0.3865E-05 (  3,  2, 32)  0.2248E-05 (  3,  2, 29)
   0.1179E-05 (  3,  2, 30)  0.6522E-06 (  3,  3, 33)  0.3859E-06 (  4,  3, 31)  0.2226E-06 (  3,  3, 31)  0.1129E-06 (  3,  2, 29)
   0.4713E-07 (  5,  2, 50)
0WARNING: NUMERICAL OSCILLATION ENCOUNTERED
 ONE OR MORE CELL CONCENTRATIONS LESS THAN CRHOREF
 SMALLEST DENSITY =  0.100E+04
 AT CELL (I,J,K) = (   3,  59,  27)



                                          ================================================
                                                         FROM TIME =   29.000     TO    30.000    

 
 SOLVING FOR HEAD 
 FLOW MODEL IS TRANSIENT
 FLOW MODEL CONTAINS CONSTANT-HEAD CELLS


 MAXIMUM STEPSIZE DURING WHICH ANY PARTICLE CANNOT MOVE MORE THAN ONE CELL
 = 0.1700    (WHEN MIN. R.F.=1)  AT K=   3, I=   2, J=  30

 MAXIMUM STEPSIZE WHICH MEETS STABILITY CRITERION OF THE ADVECTION TERM
 (FOR PURE FINITE-DIFFERENCE OPTION, MIXELM=0) 
 = 0.1348    (WHEN MIN. R.F.=1)  AT K=   3, I=   2, J=  31


 TOTAL NUMBER OF POINT SOURCES/SINKS PRESENT IN THE FLOW MODEL =   240

 MAXIMUM STEPSIZE WHICH MEETS STABILITY CRITERION OF THE SINK & SOURCE TERM
 = 0.1000E+31(WHEN MIN. R.F.=1)  AT K=   0, I=   0, J=   0

 MAXIMUM STEPSIZE WHICH MEETS STABILITY CRITERION OF THE DISPERSION TERM
 = 0.7286E-02(WHEN MIN. R.F.=1)  AT K=   3, I=   2, J=  30


     1 CALLS TO GCG PACKAGE FOR TRANSPORT TIME STEP   1 IN FLOW TIME STEP  29 STRESS PERIOD   2
    17 TOTAL ITERATIONS

 NO OUTPUT CONTROL FOR STRESS PERIOD    2   TIME STEP  29
0WARNING: NUMERICAL OSCILLATION ENCOUNTERED
 ONE OR MORE CELL CONCENTRATIONS LESS THAN CRHOREF
 SMALLEST DENSITY =  0.100E+04
 AT CELL (I,J,K) = (   3,  59,  27)

 
 SOLVING FOR HEAD 
 FLOW MODEL IS TRANSIENT
 FLOW MODEL CONTAINS CONSTANT-HEAD CELLS


 MAXIMUM STEPSIZE DURING WHICH ANY PARTICLE CANNOT MOVE MORE THAN ONE CELL
 = 0.1700    (WHEN MIN. R.F.=1)  AT K=   3, I=   2, J=  30

 MAXIMUM STEPSIZE WHICH MEETS STABILITY CRITERION OF THE ADVECTION TERM
 (FOR PURE FINITE-DIFFERENCE OPTION, MIXELM=0) 
 = 0.1348    (WHEN MIN. R.F.=1)  AT K=   3, I=   2, J=  31


 TOTAL NUMBER OF POINT SOURCES/SINKS PRESENT IN THE FLOW MODEL =   240

 MAXIMUM STEPSIZE WHICH MEETS STABILITY CRITERION OF THE SINK & SOURCE TERM
 = 0.1000E+31(WHEN MIN. R.F.=1)  AT K=   0, I=   0, J=   0

 MAXIMUM STEPSIZE WHICH MEETS STABILITY CRITERION OF THE DISPERSION TERM
 = 0.7286E-02(WHEN MIN. R.F.=1)  AT K=   3, I=   2, J=  30
     1 CALLS TO GCG PACKAGE FOR TRANSPORT TIME STEP   2 IN FLOW TIME STEP  29 STRESS PERIOD   2
    17 TOTAL ITERATIONS
0WARNING: NUMERICAL OSCILLATION ENCOUNTERED
 ONE OR MORE CELL CONCENTRATIONS LESS THAN CRHOREF
 SMALLEST DENSITY =  0.100E+04
 AT CELL (I,J,K) = (   3,  59,  27)

 
 SOLVING FOR HEAD 
 FLOW MODEL IS TRANSIENT
 FLOW MODEL CONTAINS CONSTANT-HEAD CELLS


 MAXIMUM STEPSIZE DURING WHICH ANY PARTICLE CANNOT MOVE MORE THAN ONE CELL
 = 0.1700    (WHEN MIN. R.F.=1)  AT K=   3, I=   2, J=  30

 MAXIMUM STEPSIZE WHICH MEETS STABILITY CRITERION OF THE ADVECTION TERM
 (FOR PURE FINITE-DIFFERENCE OPTION, MIXELM=0) 
 = 0.1348    (WHEN MIN. R.F.=1)  AT K=   3, I=   2, J=  31


 TOTAL NUMBER OF POINT SOURCES/SINKS PRESENT IN THE FLOW MODEL =   240

 MAXIMUM STEPSIZE WHICH MEETS STABILITY CRITERION OF THE SINK & SOURCE TERM
 = 0.1000E+31(WHEN MIN. R.F.=1)  AT K=   0, I=   0, J=   0

 MAXIMUM STEPSIZE WHICH MEETS STABILITY CRITERION OF THE DISPERSION TERM
 = 0.7286E-02(WHEN MIN. R.F.=1)  AT K=   3, I=   2, J=  30
     1 CALLS TO GCG PACKAGE FOR TRANSPORT TIME STEP   3 IN FLOW TIME STEP  29 STRESS PERIOD   2
    17 TOTAL ITERATIONS
0WARNING: NUMERICAL OSCILLATION ENCOUNTERED
 ONE OR MORE CELL CONCENTRATIONS LESS THAN CRHOREF
 SMALLEST DENSITY =  0.100E+04
 AT CELL (I,J,K) = (   3,  59,  27)

 
 SOLVING FOR HEAD 
 FLOW MODEL IS TRANSIENT
 FLOW MODEL CONTAINS CONSTANT-HEAD CELLS


 MAXIMUM STEPSIZE DURING WHICH ANY PARTICLE CANNOT MOVE MORE THAN ONE CELL
 = 0.1700    (WHEN MIN. R.F.=1)  AT K=   3, I=   2, J=  30

 MAXIMUM STEPSIZE WHICH MEETS STABILITY CRITERION OF THE ADVECTION TERM
 (FOR PURE FINITE-DIFFERENCE OPTION, MIXELM=0) 
 = 0.1348    (WHEN MIN. R.F.=1)  AT K=   3, I=   2, J=  31


 TOTAL NUMBER OF POINT SOURCES/SINKS PRESENT IN THE FLOW MODEL =   240

 MAXIMUM STEPSIZE WHICH MEETS STABILITY CRITERION OF THE SINK & SOURCE TERM
 = 0.1000E+31(WHEN MIN. R.F.=1)  AT K=   0, I=   0, J=   0

 MAXIMUM STEPSIZE WHICH MEETS STABILITY CRITERION OF THE DISPERSION TERM
 = 0.7286E-02(WHEN MIN. R.F.=1)  AT K=   3, I=   2, J=  30
     1 CALLS TO GCG PACKAGE FOR TRANSPORT TIME STEP   4 IN FLOW TIME STEP  29 STRESS PERIOD   2
    17 TOTAL ITERATIONS
0WARNING: NUMERICAL OSCILLATION ENCOUNTERED
 ONE OR MORE CELL CONCENTRATIONS LESS THAN CRHOREF
 SMALLEST DENSITY =  0.100E+04
 AT CELL (I,J,K) = (   3,  59,  27)

 
 SOLVING FOR HEAD 
 FLOW MODEL IS TRANSIENT
 FLOW MODEL CONTAINS CONSTANT-HEAD CELLS


 MAXIMUM STEPSIZE DURING WHICH ANY PARTICLE CANNOT MOVE MORE THAN ONE CELL
 = 0.1700    (WHEN MIN. R.F.=1)  AT K=   3, I=   2, J=  30

 MAXIMUM STEPSIZE WHICH MEETS STABILITY CRITERION OF THE ADVECTION TERM
 (FOR PURE FINITE-DIFFERENCE OPTION, MIXELM=0) 
 = 0.1348    (WHEN MIN. R.F.=1)  AT K=   3, I=   2, J=  31


 TOTAL NUMBER OF POINT SOURCES/SINKS PRESENT IN THE FLOW MODEL =   240

 MAXIMUM STEPSIZE WHICH MEETS STABILITY CRITERION OF THE SINK & SOURCE TERM
 = 0.1000E+31(WHEN MIN. R.F.=1)  AT K=   0, I=   0, J=   0

 MAXIMUM STEPSIZE WHICH MEETS STABILITY CRITERION OF THE DISPERSION TERM
 = 0.7286E-02(WHEN MIN. R.F.=1)  AT K=   3, I=   2, J=  30
     1 CALLS TO GCG PACKAGE FOR TRANSPORT TIME STEP   5 IN FLOW TIME STEP  29 STRESS PERIOD   2
    17 TOTAL ITERATIONS
0WARNING: NUMERICAL OSCILLATION ENCOUNTERED
 ONE OR MORE CELL CONCENTRATIONS LESS THAN CRHOREF
 SMALLEST DENSITY =  0.100E+04
 AT CELL (I,J,K) = (   3,  59,  27)

 
 SOLVING FOR HEAD 
 FLOW MODEL IS TRANSIENT
 FLOW MODEL CONTAINS CONSTANT-HEAD CELLS


 MAXIMUM STEPSIZE DURING WHICH ANY PARTICLE CANNOT MOVE MORE THAN ONE CELL
 = 0.1700    (WHEN MIN. R.F.=1)  AT K=   3, I=   2, J=  30

 MAXIMUM STEPSIZE WHICH MEETS STABILITY CRITERION OF THE ADVECTION TERM
 (FOR PURE FINITE-DIFFERENCE OPTION, MIXELM=0) 
 = 0.1348    (WHEN MIN. R.F.=1)  AT K=   3, I=   2, J=  31


 TOTAL NUMBER OF POINT SOURCES/SINKS PRESENT IN THE FLOW MODEL =   240

 MAXIMUM STEPSIZE WHICH MEETS STABILITY CRITERION OF THE SINK & SOURCE TERM
 = 0.1000E+31(WHEN MIN. R.F.=1)  AT K=   0, I=   0, J=   0

 MAXIMUM STEPSIZE WHICH MEETS STABILITY CRITERION OF THE DISPERSION TERM
 = 0.7286E-02(WHEN MIN. R.F.=1)  AT K=   3, I=   2, J=  30
     1 CALLS TO GCG PACKAGE FOR TRANSPORT TIME STEP   6 IN FLOW TIME STEP  29 STRESS PERIOD   2
    17 TOTAL ITERATIONS
0WARNING: NUMERICAL OSCILLATION ENCOUNTERED
 ONE OR MORE CELL CONCENTRATIONS LESS THAN CRHOREF
 SMALLEST DENSITY =  0.100E+04
 AT CELL (I,J,K) = (   3,  59,  27)

 
 SOLVING FOR HEAD 
 FLOW MODEL IS TRANSIENT
 FLOW MODEL CONTAINS CONSTANT-HEAD CELLS


 MAXIMUM STEPSIZE DURING WHICH ANY PARTICLE CANNOT MOVE MORE THAN ONE CELL
 = 0.1700    (WHEN MIN. R.F.=1)  AT K=   3, I=   2, J=  30

 MAXIMUM STEPSIZE WHICH MEETS STABILITY CRITERION OF THE ADVECTION TERM
 (FOR PURE FINITE-DIFFERENCE OPTION, MIXELM=0) 
 = 0.1348    (WHEN MIN. R.F.=1)  AT K=   3, I=   2, J=  31


 TOTAL NUMBER OF POINT SOURCES/SINKS PRESENT IN THE FLOW MODEL =   240

 MAXIMUM STEPSIZE WHICH MEETS STABILITY CRITERION OF THE SINK & SOURCE TERM
 = 0.1000E+31(WHEN MIN. R.F.=1)  AT K=   0, I=   0, J=   0

 MAXIMUM STEPSIZE WHICH MEETS STABILITY CRITERION OF THE DISPERSION TERM
 = 0.7286E-02(WHEN MIN. R.F.=1)  AT K=   3, I=   2, J=  30
     1 CALLS TO GCG PACKAGE FOR TRANSPORT TIME STEP   7 IN FLOW TIME STEP  29 STRESS PERIOD   2
    17 TOTAL ITERATIONS
0WARNING: NUMERICAL OSCILLATION ENCOUNTERED
 ONE OR MORE CELL CONCENTRATIONS LESS THAN CRHOREF
 SMALLEST DENSITY =  0.100E+04
 AT CELL (I,J,K) = (   3,  58,  27)

 
 SOLVING FOR HEAD 
 FLOW MODEL IS TRANSIENT
 FLOW MODEL CONTAINS CONSTANT-HEAD CELLS


 MAXIMUM STEPSIZE DURING WHICH ANY PARTICLE CANNOT MOVE MORE THAN ONE CELL
 = 0.1700    (WHEN MIN. R.F.=1)  AT K=   3, I=   2, J=  30

 MAXIMUM STEPSIZE WHICH MEETS STABILITY CRITERION OF THE ADVECTION TERM
 (FOR PURE FINITE-DIFFERENCE OPTION, MIXELM=0) 
 = 0.1348    (WHEN MIN. R.F.=1)  AT K=   3, I=   2, J=  31


 TOTAL NUMBER OF POINT SOURCES/SINKS PRESENT IN THE FLOW MODEL =   240

 MAXIMUM STEPSIZE WHICH MEETS STABILITY CRITERION OF THE SINK & SOURCE TERM
 = 0.1000E+31(WHEN MIN. R.F.=1)  AT K=   0, I=   0, J=   0

 MAXIMUM STEPSIZE WHICH MEETS STABILITY CRITERION OF THE DISPERSION TERM
 = 0.7286E-02(WHEN MIN. R.F.=1)  AT K=   3, I=   2, J=  30
     1 CALLS TO GCG PACKAGE FOR TRANSPORT TIME STEP   8 IN FLOW TIME STEP  29 STRESS PERIOD   2
    16 TOTAL ITERATIONS
  MAXIMUM CONCENTRATION CHANGES FOR EACH ITERATION:
  MAX. CHANGE LAYER,ROW,COL MAX. CHANGE LAYER,ROW,COL MAX. CHANGE LAYER,ROW,COL MAX. CHANGE LAYER,ROW,COL MAX. CHANGE LAYER,ROW,COL
 ------------------------------------------------------------------------------------------------------------------------------------
   0.1707E-02 ( 13,  1, 50)  0.3070E-03 (  7,  1, 59)  0.1058E-03 (  9,  1, 57)  0.4506E-04 (  5,  2, 53)  0.2000E-04 (  6,  1, 40)
   0.1376E-04 (  3,  2, 31)  0.8593E-05 (  3,  2, 30)  0.6008E-05 (  3,  2, 29)  0.3615E-05 (  3,  2, 32)  0.2103E-05 (  3,  2, 29)
   0.1104E-05 (  3,  2, 30)  0.6104E-06 (  3,  3, 33)  0.3618E-06 (  4,  3, 31)  0.2085E-06 (  3,  3, 31)  0.1062E-06 (  3,  2, 29)
   0.4416E-07 (  5,  2, 50)
0WARNING: NUMERICAL OSCILLATION ENCOUNTERED
 ONE OR MORE CELL CONCENTRATIONS LESS THAN CRHOREF
 SMALLEST DENSITY =  0.100E+04
 AT CELL (I,J,K) = (   3,  58,  27)



                                          ================================================
                                                         FROM TIME =   30.000     TO    31.000    

 
 SOLVING FOR HEAD 
 FLOW MODEL IS TRANSIENT
 FLOW MODEL CONTAINS CONSTANT-HEAD CELLS


 MAXIMUM STEPSIZE DURING WHICH ANY PARTICLE CANNOT MOVE MORE THAN ONE CELL
 = 0.1700    (WHEN MIN. R.F.=1)  AT K=   3, I=   2, J=  30

 MAXIMUM STEPSIZE WHICH MEETS STABILITY CRITERION OF THE ADVECTION TERM
 (FOR PURE FINITE-DIFFERENCE OPTION, MIXELM=0) 
 = 0.1348    (WHEN MIN. R.F.=1)  AT K=   3, I=   2, J=  31


 TOTAL NUMBER OF POINT SOURCES/SINKS PRESENT IN THE FLOW MODEL =   240

 MAXIMUM STEPSIZE WHICH MEETS STABILITY CRITERION OF THE SINK & SOURCE TERM
 = 0.1000E+31(WHEN MIN. R.F.=1)  AT K=   0, I=   0, J=   0

 MAXIMUM STEPSIZE WHICH MEETS STABILITY CRITERION OF THE DISPERSION TERM
 = 0.7286E-02(WHEN MIN. R.F.=1)  AT K=   3, I=   2, J=  30


     1 CALLS TO GCG PACKAGE FOR TRANSPORT TIME STEP   1 IN FLOW TIME STEP  30 STRESS PERIOD   2
    17 TOTAL ITERATIONS

 NO OUTPUT CONTROL FOR STRESS PERIOD    2   TIME STEP  30
0WARNING: NUMERICAL OSCILLATION ENCOUNTERED
 ONE OR MORE CELL CONCENTRATIONS LESS THAN CRHOREF
 SMALLEST DENSITY =  0.100E+04
 AT CELL (I,J,K) = (   3,  58,  27)

 
 SOLVING FOR HEAD 
 FLOW MODEL IS TRANSIENT
 FLOW MODEL CONTAINS CONSTANT-HEAD CELLS


 MAXIMUM STEPSIZE DURING WHICH ANY PARTICLE CANNOT MOVE MORE THAN ONE CELL
 = 0.1700    (WHEN MIN. R.F.=1)  AT K=   3, I=   2, J=  30

 MAXIMUM STEPSIZE WHICH MEETS STABILITY CRITERION OF THE ADVECTION TERM
 (FOR PURE FINITE-DIFFERENCE OPTION, MIXELM=0) 
 = 0.1348    (WHEN MIN. R.F.=1)  AT K=   3, I=   2, J=  31


 TOTAL NUMBER OF POINT SOURCES/SINKS PRESENT IN THE FLOW MODEL =   240

 MAXIMUM STEPSIZE WHICH MEETS STABILITY CRITERION OF THE SINK & SOURCE TERM
 = 0.1000E+31(WHEN MIN. R.F.=1)  AT K=   0, I=   0, J=   0

 MAXIMUM STEPSIZE WHICH MEETS STABILITY CRITERION OF THE DISPERSION TERM
 = 0.7286E-02(WHEN MIN. R.F.=1)  AT K=   3, I=   2, J=  30
     1 CALLS TO GCG PACKAGE FOR TRANSPORT TIME STEP   2 IN FLOW TIME STEP  30 STRESS PERIOD   2
    17 TOTAL ITERATIONS
0WARNING: NUMERICAL OSCILLATION ENCOUNTERED
 ONE OR MORE CELL CONCENTRATIONS LESS THAN CRHOREF
 SMALLEST DENSITY =  0.100E+04
 AT CELL (I,J,K) = (   3,  59,  27)

 
 SOLVING FOR HEAD 
 FLOW MODEL IS TRANSIENT
 FLOW MODEL CONTAINS CONSTANT-HEAD CELLS


 MAXIMUM STEPSIZE DURING WHICH ANY PARTICLE CANNOT MOVE MORE THAN ONE CELL
 = 0.1700    (WHEN MIN. R.F.=1)  AT K=   3, I=   2, J=  30

 MAXIMUM STEPSIZE WHICH MEETS STABILITY CRITERION OF THE ADVECTION TERM
 (FOR PURE FINITE-DIFFERENCE OPTION, MIXELM=0) 
 = 0.1348    (WHEN MIN. R.F.=1)  AT K=   3, I=   2, J=  31


 TOTAL NUMBER OF POINT SOURCES/SINKS PRESENT IN THE FLOW MODEL =   240

 MAXIMUM STEPSIZE WHICH MEETS STABILITY CRITERION OF THE SINK & SOURCE TERM
 = 0.1000E+31(WHEN MIN. R.F.=1)  AT K=   0, I=   0, J=   0

 MAXIMUM STEPSIZE WHICH MEETS STABILITY CRITERION OF THE DISPERSION TERM
 = 0.7286E-02(WHEN MIN. R.F.=1)  AT K=   3, I=   2, J=  30
     1 CALLS TO GCG PACKAGE FOR TRANSPORT TIME STEP   3 IN FLOW TIME STEP  30 STRESS PERIOD   2
    17 TOTAL ITERATIONS
0WARNING: NUMERICAL OSCILLATION ENCOUNTERED
 ONE OR MORE CELL CONCENTRATIONS LESS THAN CRHOREF
 SMALLEST DENSITY =  0.100E+04
 AT CELL (I,J,K) = (   3,  59,  27)

 
 SOLVING FOR HEAD 
 FLOW MODEL IS TRANSIENT
 FLOW MODEL CONTAINS CONSTANT-HEAD CELLS


 MAXIMUM STEPSIZE DURING WHICH ANY PARTICLE CANNOT MOVE MORE THAN ONE CELL
 = 0.1700    (WHEN MIN. R.F.=1)  AT K=   3, I=   2, J=  30

 MAXIMUM STEPSIZE WHICH MEETS STABILITY CRITERION OF THE ADVECTION TERM
 (FOR PURE FINITE-DIFFERENCE OPTION, MIXELM=0) 
 = 0.1348    (WHEN MIN. R.F.=1)  AT K=   3, I=   2, J=  31


 TOTAL NUMBER OF POINT SOURCES/SINKS PRESENT IN THE FLOW MODEL =   240

 MAXIMUM STEPSIZE WHICH MEETS STABILITY CRITERION OF THE SINK & SOURCE TERM
 = 0.1000E+31(WHEN MIN. R.F.=1)  AT K=   0, I=   0, J=   0

 MAXIMUM STEPSIZE WHICH MEETS STABILITY CRITERION OF THE DISPERSION TERM
 = 0.7286E-02(WHEN MIN. R.F.=1)  AT K=   3, I=   2, J=  30
     1 CALLS TO GCG PACKAGE FOR TRANSPORT TIME STEP   4 IN FLOW TIME STEP  30 STRESS PERIOD   2
    17 TOTAL ITERATIONS
0WARNING: NUMERICAL OSCILLATION ENCOUNTERED
 ONE OR MORE CELL CONCENTRATIONS LESS THAN CRHOREF
 SMALLEST DENSITY =  0.100E+04
 AT CELL (I,J,K) = (   3,  59,  27)

 
 SOLVING FOR HEAD 
 FLOW MODEL IS TRANSIENT
 FLOW MODEL CONTAINS CONSTANT-HEAD CELLS


 MAXIMUM STEPSIZE DURING WHICH ANY PARTICLE CANNOT MOVE MORE THAN ONE CELL
 = 0.1700    (WHEN MIN. R.F.=1)  AT K=   3, I=   2, J=  30

 MAXIMUM STEPSIZE WHICH MEETS STABILITY CRITERION OF THE ADVECTION TERM
 (FOR PURE FINITE-DIFFERENCE OPTION, MIXELM=0) 
 = 0.1348    (WHEN MIN. R.F.=1)  AT K=   3, I=   2, J=  31


 TOTAL NUMBER OF POINT SOURCES/SINKS PRESENT IN THE FLOW MODEL =   240

 MAXIMUM STEPSIZE WHICH MEETS STABILITY CRITERION OF THE SINK & SOURCE TERM
 = 0.1000E+31(WHEN MIN. R.F.=1)  AT K=   0, I=   0, J=   0

 MAXIMUM STEPSIZE WHICH MEETS STABILITY CRITERION OF THE DISPERSION TERM
 = 0.7286E-02(WHEN MIN. R.F.=1)  AT K=   3, I=   2, J=  30
     1 CALLS TO GCG PACKAGE FOR TRANSPORT TIME STEP   5 IN FLOW TIME STEP  30 STRESS PERIOD   2
    17 TOTAL ITERATIONS
0WARNING: NUMERICAL OSCILLATION ENCOUNTERED
 ONE OR MORE CELL CONCENTRATIONS LESS THAN CRHOREF
 SMALLEST DENSITY =  0.100E+04
 AT CELL (I,J,K) = (   3,  59,  27)

 
 SOLVING FOR HEAD 
 FLOW MODEL IS TRANSIENT
 FLOW MODEL CONTAINS CONSTANT-HEAD CELLS


 MAXIMUM STEPSIZE DURING WHICH ANY PARTICLE CANNOT MOVE MORE THAN ONE CELL
 = 0.1700    (WHEN MIN. R.F.=1)  AT K=   3, I=   2, J=  30

 MAXIMUM STEPSIZE WHICH MEETS STABILITY CRITERION OF THE ADVECTION TERM
 (FOR PURE FINITE-DIFFERENCE OPTION, MIXELM=0) 
 = 0.1348    (WHEN MIN. R.F.=1)  AT K=   3, I=   2, J=  31


 TOTAL NUMBER OF POINT SOURCES/SINKS PRESENT IN THE FLOW MODEL =   240

 MAXIMUM STEPSIZE WHICH MEETS STABILITY CRITERION OF THE SINK & SOURCE TERM
 = 0.1000E+31(WHEN MIN. R.F.=1)  AT K=   0, I=   0, J=   0

 MAXIMUM STEPSIZE WHICH MEETS STABILITY CRITERION OF THE DISPERSION TERM
 = 0.7286E-02(WHEN MIN. R.F.=1)  AT K=   3, I=   2, J=  30
     1 CALLS TO GCG PACKAGE FOR TRANSPORT TIME STEP   6 IN FLOW TIME STEP  30 STRESS PERIOD   2
    17 TOTAL ITERATIONS
0WARNING: NUMERICAL OSCILLATION ENCOUNTERED
 ONE OR MORE CELL CONCENTRATIONS LESS THAN CRHOREF
 SMALLEST DENSITY =  0.100E+04
 AT CELL (I,J,K) = (   3,  59,  27)

 
 SOLVING FOR HEAD 
 FLOW MODEL IS TRANSIENT
 FLOW MODEL CONTAINS CONSTANT-HEAD CELLS


 MAXIMUM STEPSIZE DURING WHICH ANY PARTICLE CANNOT MOVE MORE THAN ONE CELL
 = 0.1700    (WHEN MIN. R.F.=1)  AT K=   3, I=   2, J=  30

 MAXIMUM STEPSIZE WHICH MEETS STABILITY CRITERION OF THE ADVECTION TERM
 (FOR PURE FINITE-DIFFERENCE OPTION, MIXELM=0) 
 = 0.1348    (WHEN MIN. R.F.=1)  AT K=   3, I=   2, J=  31


 TOTAL NUMBER OF POINT SOURCES/SINKS PRESENT IN THE FLOW MODEL =   240

 MAXIMUM STEPSIZE WHICH MEETS STABILITY CRITERION OF THE SINK & SOURCE TERM
 = 0.1000E+31(WHEN MIN. R.F.=1)  AT K=   0, I=   0, J=   0

 MAXIMUM STEPSIZE WHICH MEETS STABILITY CRITERION OF THE DISPERSION TERM
 = 0.7286E-02(WHEN MIN. R.F.=1)  AT K=   3, I=   2, J=  30
     1 CALLS TO GCG PACKAGE FOR TRANSPORT TIME STEP   7 IN FLOW TIME STEP  30 STRESS PERIOD   2
    17 TOTAL ITERATIONS
0WARNING: NUMERICAL OSCILLATION ENCOUNTERED
 ONE OR MORE CELL CONCENTRATIONS LESS THAN CRHOREF
 SMALLEST DENSITY =  0.100E+04
 AT CELL (I,J,K) = (   3,  59,  27)

 
 SOLVING FOR HEAD 
 FLOW MODEL IS TRANSIENT
 FLOW MODEL CONTAINS CONSTANT-HEAD CELLS


 MAXIMUM STEPSIZE DURING WHICH ANY PARTICLE CANNOT MOVE MORE THAN ONE CELL
 = 0.1700    (WHEN MIN. R.F.=1)  AT K=   3, I=   2, J=  30

 MAXIMUM STEPSIZE WHICH MEETS STABILITY CRITERION OF THE ADVECTION TERM
 (FOR PURE FINITE-DIFFERENCE OPTION, MIXELM=0) 
 = 0.1348    (WHEN MIN. R.F.=1)  AT K=   3, I=   2, J=  31


 TOTAL NUMBER OF POINT SOURCES/SINKS PRESENT IN THE FLOW MODEL =   240

 MAXIMUM STEPSIZE WHICH MEETS STABILITY CRITERION OF THE SINK & SOURCE TERM
 = 0.1000E+31(WHEN MIN. R.F.=1)  AT K=   0, I=   0, J=   0

 MAXIMUM STEPSIZE WHICH MEETS STABILITY CRITERION OF THE DISPERSION TERM
 = 0.7286E-02(WHEN MIN. R.F.=1)  AT K=   3, I=   2, J=  30
     1 CALLS TO GCG PACKAGE FOR TRANSPORT TIME STEP   8 IN FLOW TIME STEP  30 STRESS PERIOD   2
    16 TOTAL ITERATIONS
  MAXIMUM CONCENTRATION CHANGES FOR EACH ITERATION:
  MAX. CHANGE LAYER,ROW,COL MAX. CHANGE LAYER,ROW,COL MAX. CHANGE LAYER,ROW,COL MAX. CHANGE LAYER,ROW,COL MAX. CHANGE LAYER,ROW,COL
 ------------------------------------------------------------------------------------------------------------------------------------
   0.1625E-02 ( 13,  1, 50)  0.2949E-03 (  7,  1, 59)  0.1000E-03 (  5,  2, 62)  0.4251E-04 (  5,  2, 53)  0.1852E-04 (  6,  1, 51)
   0.1286E-04 (  3,  2, 31)  0.8048E-05 (  3,  2, 30)  0.5625E-05 (  3,  2, 29)  0.3389E-05 (  3,  2, 32)  0.1971E-05 (  3,  2, 29)
   0.1037E-05 (  3,  2, 30)  0.5724E-06 (  3,  3, 33)  0.3400E-06 (  4,  3, 31)  0.1957E-06 (  3,  3, 31)  0.1001E-06 (  3,  2, 29)
   0.4144E-07 (  5,  2, 50)
0WARNING: NUMERICAL OSCILLATION ENCOUNTERED
 ONE OR MORE CELL CONCENTRATIONS LESS THAN CRHOREF
 SMALLEST DENSITY =  0.100E+04
 AT CELL (I,J,K) = (   3,  59,  27)



                                          ================================================
                                                         FROM TIME =   31.000     TO    32.000    

 
 SOLVING FOR HEAD 
 FLOW MODEL IS TRANSIENT
 FLOW MODEL CONTAINS CONSTANT-HEAD CELLS


 MAXIMUM STEPSIZE DURING WHICH ANY PARTICLE CANNOT MOVE MORE THAN ONE CELL
 = 0.1700    (WHEN MIN. R.F.=1)  AT K=   3, I=   2, J=  30

 MAXIMUM STEPSIZE WHICH MEETS STABILITY CRITERION OF THE ADVECTION TERM
 (FOR PURE FINITE-DIFFERENCE OPTION, MIXELM=0) 
 = 0.1348    (WHEN MIN. R.F.=1)  AT K=   3, I=   2, J=  31


 TOTAL NUMBER OF POINT SOURCES/SINKS PRESENT IN THE FLOW MODEL =   240

 MAXIMUM STEPSIZE WHICH MEETS STABILITY CRITERION OF THE SINK & SOURCE TERM
 = 0.1000E+31(WHEN MIN. R.F.=1)  AT K=   0, I=   0, J=   0

 MAXIMUM STEPSIZE WHICH MEETS STABILITY CRITERION OF THE DISPERSION TERM
 = 0.7286E-02(WHEN MIN. R.F.=1)  AT K=   3, I=   2, J=  30


     1 CALLS TO GCG PACKAGE FOR TRANSPORT TIME STEP   1 IN FLOW TIME STEP  31 STRESS PERIOD   2
    17 TOTAL ITERATIONS

 NO OUTPUT CONTROL FOR STRESS PERIOD    2   TIME STEP  31
0WARNING: NUMERICAL OSCILLATION ENCOUNTERED
 ONE OR MORE CELL CONCENTRATIONS LESS THAN CRHOREF
 SMALLEST DENSITY =  0.100E+04
 AT CELL (I,J,K) = (   3,  59,  27)

 
 SOLVING FOR HEAD 
 FLOW MODEL IS TRANSIENT
 FLOW MODEL CONTAINS CONSTANT-HEAD CELLS


 MAXIMUM STEPSIZE DURING WHICH ANY PARTICLE CANNOT MOVE MORE THAN ONE CELL
 = 0.1700    (WHEN MIN. R.F.=1)  AT K=   3, I=   2, J=  30

 MAXIMUM STEPSIZE WHICH MEETS STABILITY CRITERION OF THE ADVECTION TERM
 (FOR PURE FINITE-DIFFERENCE OPTION, MIXELM=0) 
 = 0.1348    (WHEN MIN. R.F.=1)  AT K=   3, I=   2, J=  31


 TOTAL NUMBER OF POINT SOURCES/SINKS PRESENT IN THE FLOW MODEL =   240

 MAXIMUM STEPSIZE WHICH MEETS STABILITY CRITERION OF THE SINK & SOURCE TERM
 = 0.1000E+31(WHEN MIN. R.F.=1)  AT K=   0, I=   0, J=   0

 MAXIMUM STEPSIZE WHICH MEETS STABILITY CRITERION OF THE DISPERSION TERM
 = 0.7286E-02(WHEN MIN. R.F.=1)  AT K=   3, I=   2, J=  30
     1 CALLS TO GCG PACKAGE FOR TRANSPORT TIME STEP   2 IN FLOW TIME STEP  31 STRESS PERIOD   2
    17 TOTAL ITERATIONS
0WARNING: NUMERICAL OSCILLATION ENCOUNTERED
 ONE OR MORE CELL CONCENTRATIONS LESS THAN CRHOREF
 SMALLEST DENSITY =  0.100E+04
 AT CELL (I,J,K) = (   3,  59,  27)

 
 SOLVING FOR HEAD 
 FLOW MODEL IS TRANSIENT
 FLOW MODEL CONTAINS CONSTANT-HEAD CELLS


 MAXIMUM STEPSIZE DURING WHICH ANY PARTICLE CANNOT MOVE MORE THAN ONE CELL
 = 0.1700    (WHEN MIN. R.F.=1)  AT K=   3, I=   2, J=  30

 MAXIMUM STEPSIZE WHICH MEETS STABILITY CRITERION OF THE ADVECTION TERM
 (FOR PURE FINITE-DIFFERENCE OPTION, MIXELM=0) 
 = 0.1348    (WHEN MIN. R.F.=1)  AT K=   3, I=   2, J=  31


 TOTAL NUMBER OF POINT SOURCES/SINKS PRESENT IN THE FLOW MODEL =   240

 MAXIMUM STEPSIZE WHICH MEETS STABILITY CRITERION OF THE SINK & SOURCE TERM
 = 0.1000E+31(WHEN MIN. R.F.=1)  AT K=   0, I=   0, J=   0

 MAXIMUM STEPSIZE WHICH MEETS STABILITY CRITERION OF THE DISPERSION TERM
 = 0.7285E-02(WHEN MIN. R.F.=1)  AT K=   3, I=   2, J=  30
     1 CALLS TO GCG PACKAGE FOR TRANSPORT TIME STEP   3 IN FLOW TIME STEP  31 STRESS PERIOD   2
    17 TOTAL ITERATIONS
0WARNING: NUMERICAL OSCILLATION ENCOUNTERED
 ONE OR MORE CELL CONCENTRATIONS LESS THAN CRHOREF
 SMALLEST DENSITY =  0.100E+04
 AT CELL (I,J,K) = (   3,  59,  27)

 
 SOLVING FOR HEAD 
 FLOW MODEL IS TRANSIENT
 FLOW MODEL CONTAINS CONSTANT-HEAD CELLS


 MAXIMUM STEPSIZE DURING WHICH ANY PARTICLE CANNOT MOVE MORE THAN ONE CELL
 = 0.1700    (WHEN MIN. R.F.=1)  AT K=   3, I=   2, J=  30

 MAXIMUM STEPSIZE WHICH MEETS STABILITY CRITERION OF THE ADVECTION TERM
 (FOR PURE FINITE-DIFFERENCE OPTION, MIXELM=0) 
 = 0.1348    (WHEN MIN. R.F.=1)  AT K=   3, I=   2, J=  31


 TOTAL NUMBER OF POINT SOURCES/SINKS PRESENT IN THE FLOW MODEL =   240

 MAXIMUM STEPSIZE WHICH MEETS STABILITY CRITERION OF THE SINK & SOURCE TERM
 = 0.1000E+31(WHEN MIN. R.F.=1)  AT K=   0, I=   0, J=   0

 MAXIMUM STEPSIZE WHICH MEETS STABILITY CRITERION OF THE DISPERSION TERM
 = 0.7285E-02(WHEN MIN. R.F.=1)  AT K=   3, I=   2, J=  30
     1 CALLS TO GCG PACKAGE FOR TRANSPORT TIME STEP   4 IN FLOW TIME STEP  31 STRESS PERIOD   2
    17 TOTAL ITERATIONS
0WARNING: NUMERICAL OSCILLATION ENCOUNTERED
 ONE OR MORE CELL CONCENTRATIONS LESS THAN CRHOREF
 SMALLEST DENSITY =  0.100E+04
 AT CELL (I,J,K) = (   3,  59,  27)

 
 SOLVING FOR HEAD 
 FLOW MODEL IS TRANSIENT
 FLOW MODEL CONTAINS CONSTANT-HEAD CELLS


 MAXIMUM STEPSIZE DURING WHICH ANY PARTICLE CANNOT MOVE MORE THAN ONE CELL
 = 0.1700    (WHEN MIN. R.F.=1)  AT K=   3, I=   2, J=  30

 MAXIMUM STEPSIZE WHICH MEETS STABILITY CRITERION OF THE ADVECTION TERM
 (FOR PURE FINITE-DIFFERENCE OPTION, MIXELM=0) 
 = 0.1348    (WHEN MIN. R.F.=1)  AT K=   3, I=   2, J=  31


 TOTAL NUMBER OF POINT SOURCES/SINKS PRESENT IN THE FLOW MODEL =   240

 MAXIMUM STEPSIZE WHICH MEETS STABILITY CRITERION OF THE SINK & SOURCE TERM
 = 0.1000E+31(WHEN MIN. R.F.=1)  AT K=   0, I=   0, J=   0

 MAXIMUM STEPSIZE WHICH MEETS STABILITY CRITERION OF THE DISPERSION TERM
 = 0.7285E-02(WHEN MIN. R.F.=1)  AT K=   3, I=   2, J=  30
     1 CALLS TO GCG PACKAGE FOR TRANSPORT TIME STEP   5 IN FLOW TIME STEP  31 STRESS PERIOD   2
    17 TOTAL ITERATIONS
0WARNING: NUMERICAL OSCILLATION ENCOUNTERED
 ONE OR MORE CELL CONCENTRATIONS LESS THAN CRHOREF
 SMALLEST DENSITY =  0.100E+04
 AT CELL (I,J,K) = (   3,  59,  27)

 
 SOLVING FOR HEAD 
 FLOW MODEL IS TRANSIENT
 FLOW MODEL CONTAINS CONSTANT-HEAD CELLS


 MAXIMUM STEPSIZE DURING WHICH ANY PARTICLE CANNOT MOVE MORE THAN ONE CELL
 = 0.1700    (WHEN MIN. R.F.=1)  AT K=   3, I=   2, J=  30

 MAXIMUM STEPSIZE WHICH MEETS STABILITY CRITERION OF THE ADVECTION TERM
 (FOR PURE FINITE-DIFFERENCE OPTION, MIXELM=0) 
 = 0.1348    (WHEN MIN. R.F.=1)  AT K=   3, I=   2, J=  31


 TOTAL NUMBER OF POINT SOURCES/SINKS PRESENT IN THE FLOW MODEL =   240

 MAXIMUM STEPSIZE WHICH MEETS STABILITY CRITERION OF THE SINK & SOURCE TERM
 = 0.1000E+31(WHEN MIN. R.F.=1)  AT K=   0, I=   0, J=   0

 MAXIMUM STEPSIZE WHICH MEETS STABILITY CRITERION OF THE DISPERSION TERM
 = 0.7285E-02(WHEN MIN. R.F.=1)  AT K=   3, I=   2, J=  30
     1 CALLS TO GCG PACKAGE FOR TRANSPORT TIME STEP   6 IN FLOW TIME STEP  31 STRESS PERIOD   2
    17 TOTAL ITERATIONS
0WARNING: NUMERICAL OSCILLATION ENCOUNTERED
 ONE OR MORE CELL CONCENTRATIONS LESS THAN CRHOREF
 SMALLEST DENSITY =  0.100E+04
 AT CELL (I,J,K) = (   3,  59,  27)

 
 SOLVING FOR HEAD 
 FLOW MODEL IS TRANSIENT
 FLOW MODEL CONTAINS CONSTANT-HEAD CELLS


 MAXIMUM STEPSIZE DURING WHICH ANY PARTICLE CANNOT MOVE MORE THAN ONE CELL
 = 0.1700    (WHEN MIN. R.F.=1)  AT K=   3, I=   2, J=  30

 MAXIMUM STEPSIZE WHICH MEETS STABILITY CRITERION OF THE ADVECTION TERM
 (FOR PURE FINITE-DIFFERENCE OPTION, MIXELM=0) 
 = 0.1348    (WHEN MIN. R.F.=1)  AT K=   3, I=   2, J=  31


 TOTAL NUMBER OF POINT SOURCES/SINKS PRESENT IN THE FLOW MODEL =   240

 MAXIMUM STEPSIZE WHICH MEETS STABILITY CRITERION OF THE SINK & SOURCE TERM
 = 0.1000E+31(WHEN MIN. R.F.=1)  AT K=   0, I=   0, J=   0

 MAXIMUM STEPSIZE WHICH MEETS STABILITY CRITERION OF THE DISPERSION TERM
 = 0.7285E-02(WHEN MIN. R.F.=1)  AT K=   3, I=   2, J=  30
     1 CALLS TO GCG PACKAGE FOR TRANSPORT TIME STEP   7 IN FLOW TIME STEP  31 STRESS PERIOD   2
    16 TOTAL ITERATIONS
0WARNING: NUMERICAL OSCILLATION ENCOUNTERED
 ONE OR MORE CELL CONCENTRATIONS LESS THAN CRHOREF
 SMALLEST DENSITY =  0.100E+04
 AT CELL (I,J,K) = (   3,  59,  27)

 
 SOLVING FOR HEAD 
 FLOW MODEL IS TRANSIENT
 FLOW MODEL CONTAINS CONSTANT-HEAD CELLS


 MAXIMUM STEPSIZE DURING WHICH ANY PARTICLE CANNOT MOVE MORE THAN ONE CELL
 = 0.1700    (WHEN MIN. R.F.=1)  AT K=   3, I=   2, J=  30

 MAXIMUM STEPSIZE WHICH MEETS STABILITY CRITERION OF THE ADVECTION TERM
 (FOR PURE FINITE-DIFFERENCE OPTION, MIXELM=0) 
 = 0.1348    (WHEN MIN. R.F.=1)  AT K=   3, I=   2, J=  31


 TOTAL NUMBER OF POINT SOURCES/SINKS PRESENT IN THE FLOW MODEL =   240

 MAXIMUM STEPSIZE WHICH MEETS STABILITY CRITERION OF THE SINK & SOURCE TERM
 = 0.1000E+31(WHEN MIN. R.F.=1)  AT K=   0, I=   0, J=   0

 MAXIMUM STEPSIZE WHICH MEETS STABILITY CRITERION OF THE DISPERSION TERM
 = 0.7285E-02(WHEN MIN. R.F.=1)  AT K=   3, I=   2, J=  30
     1 CALLS TO GCG PACKAGE FOR TRANSPORT TIME STEP   8 IN FLOW TIME STEP  31 STRESS PERIOD   2
    15 TOTAL ITERATIONS
  MAXIMUM CONCENTRATION CHANGES FOR EACH ITERATION:
  MAX. CHANGE LAYER,ROW,COL MAX. CHANGE LAYER,ROW,COL MAX. CHANGE LAYER,ROW,COL MAX. CHANGE LAYER,ROW,COL MAX. CHANGE LAYER,ROW,COL
 ------------------------------------------------------------------------------------------------------------------------------------
   0.1549E-02 ( 13,  1, 50)  0.2834E-03 (  7,  1, 59)  0.9509E-04 (  5,  2, 62)  0.4016E-04 (  5,  2, 53)  0.1724E-04 (  6,  1, 51)
   0.1191E-04 (  3,  2, 31)  0.7429E-05 (  4,  3, 31)  0.5202E-05 (  3,  2, 29)  0.3175E-05 (  3,  3, 32)  0.1831E-05 (  3,  2, 29)
   0.9620E-06 (  3,  2, 30)  0.5348E-06 (  4,  3, 30)  0.3233E-06 (  4,  3, 31)  0.1859E-06 (  3,  3, 31)  0.9853E-07 (  3,  2, 29)
0WARNING: NUMERICAL OSCILLATION ENCOUNTERED
 ONE OR MORE CELL CONCENTRATIONS LESS THAN CRHOREF
 SMALLEST DENSITY =  0.100E+04
 AT CELL (I,J,K) = (   3,  59,  27)



                                          ================================================
                                                         FROM TIME =   32.000     TO    33.000    

 
 SOLVING FOR HEAD 
 FLOW MODEL IS TRANSIENT
 FLOW MODEL CONTAINS CONSTANT-HEAD CELLS


 MAXIMUM STEPSIZE DURING WHICH ANY PARTICLE CANNOT MOVE MORE THAN ONE CELL
 = 0.1700    (WHEN MIN. R.F.=1)  AT K=   3, I=   2, J=  30

 MAXIMUM STEPSIZE WHICH MEETS STABILITY CRITERION OF THE ADVECTION TERM
 (FOR PURE FINITE-DIFFERENCE OPTION, MIXELM=0) 
 = 0.1348    (WHEN MIN. R.F.=1)  AT K=   3, I=   2, J=  31


 TOTAL NUMBER OF POINT SOURCES/SINKS PRESENT IN THE FLOW MODEL =   240

 MAXIMUM STEPSIZE WHICH MEETS STABILITY CRITERION OF THE SINK & SOURCE TERM
 = 0.1000E+31(WHEN MIN. R.F.=1)  AT K=   0, I=   0, J=   0

 MAXIMUM STEPSIZE WHICH MEETS STABILITY CRITERION OF THE DISPERSION TERM
 = 0.7285E-02(WHEN MIN. R.F.=1)  AT K=   3, I=   2, J=  30


     1 CALLS TO GCG PACKAGE FOR TRANSPORT TIME STEP   1 IN FLOW TIME STEP  32 STRESS PERIOD   2
    16 TOTAL ITERATIONS

 NO OUTPUT CONTROL FOR STRESS PERIOD    2   TIME STEP  32
0WARNING: NUMERICAL OSCILLATION ENCOUNTERED
 ONE OR MORE CELL CONCENTRATIONS LESS THAN CRHOREF
 SMALLEST DENSITY =  0.100E+04
 AT CELL (I,J,K) = (   3,  59,  27)

 
 SOLVING FOR HEAD 
 FLOW MODEL IS TRANSIENT
 FLOW MODEL CONTAINS CONSTANT-HEAD CELLS


 MAXIMUM STEPSIZE DURING WHICH ANY PARTICLE CANNOT MOVE MORE THAN ONE CELL
 = 0.1700    (WHEN MIN. R.F.=1)  AT K=   3, I=   2, J=  30

 MAXIMUM STEPSIZE WHICH MEETS STABILITY CRITERION OF THE ADVECTION TERM
 (FOR PURE FINITE-DIFFERENCE OPTION, MIXELM=0) 
 = 0.1348    (WHEN MIN. R.F.=1)  AT K=   3, I=   2, J=  31


 TOTAL NUMBER OF POINT SOURCES/SINKS PRESENT IN THE FLOW MODEL =   240

 MAXIMUM STEPSIZE WHICH MEETS STABILITY CRITERION OF THE SINK & SOURCE TERM
 = 0.1000E+31(WHEN MIN. R.F.=1)  AT K=   0, I=   0, J=   0

 MAXIMUM STEPSIZE WHICH MEETS STABILITY CRITERION OF THE DISPERSION TERM
 = 0.7285E-02(WHEN MIN. R.F.=1)  AT K=   3, I=   2, J=  30
     1 CALLS TO GCG PACKAGE FOR TRANSPORT TIME STEP   2 IN FLOW TIME STEP  32 STRESS PERIOD   2
    16 TOTAL ITERATIONS
0WARNING: NUMERICAL OSCILLATION ENCOUNTERED
 ONE OR MORE CELL CONCENTRATIONS LESS THAN CRHOREF
 SMALLEST DENSITY =  0.100E+04
 AT CELL (I,J,K) = (   3,  59,  27)

 
 SOLVING FOR HEAD 
 FLOW MODEL IS TRANSIENT
 FLOW MODEL CONTAINS CONSTANT-HEAD CELLS


 MAXIMUM STEPSIZE DURING WHICH ANY PARTICLE CANNOT MOVE MORE THAN ONE CELL
 = 0.1700    (WHEN MIN. R.F.=1)  AT K=   3, I=   2, J=  30

 MAXIMUM STEPSIZE WHICH MEETS STABILITY CRITERION OF THE ADVECTION TERM
 (FOR PURE FINITE-DIFFERENCE OPTION, MIXELM=0) 
 = 0.1348    (WHEN MIN. R.F.=1)  AT K=   3, I=   2, J=  31


 TOTAL NUMBER OF POINT SOURCES/SINKS PRESENT IN THE FLOW MODEL =   240

 MAXIMUM STEPSIZE WHICH MEETS STABILITY CRITERION OF THE SINK & SOURCE TERM
 = 0.1000E+31(WHEN MIN. R.F.=1)  AT K=   0, I=   0, J=   0

 MAXIMUM STEPSIZE WHICH MEETS STABILITY CRITERION OF THE DISPERSION TERM
 = 0.7285E-02(WHEN MIN. R.F.=1)  AT K=   3, I=   2, J=  30
     1 CALLS TO GCG PACKAGE FOR TRANSPORT TIME STEP   3 IN FLOW TIME STEP  32 STRESS PERIOD   2
    16 TOTAL ITERATIONS
0WARNING: NUMERICAL OSCILLATION ENCOUNTERED
 ONE OR MORE CELL CONCENTRATIONS LESS THAN CRHOREF
 SMALLEST DENSITY =  0.100E+04
 AT CELL (I,J,K) = (   3,  59,  27)

 
 SOLVING FOR HEAD 
 FLOW MODEL IS TRANSIENT
 FLOW MODEL CONTAINS CONSTANT-HEAD CELLS


 MAXIMUM STEPSIZE DURING WHICH ANY PARTICLE CANNOT MOVE MORE THAN ONE CELL
 = 0.1700    (WHEN MIN. R.F.=1)  AT K=   3, I=   2, J=  30

 MAXIMUM STEPSIZE WHICH MEETS STABILITY CRITERION OF THE ADVECTION TERM
 (FOR PURE FINITE-DIFFERENCE OPTION, MIXELM=0) 
 = 0.1348    (WHEN MIN. R.F.=1)  AT K=   3, I=   2, J=  31


 TOTAL NUMBER OF POINT SOURCES/SINKS PRESENT IN THE FLOW MODEL =   240

 MAXIMUM STEPSIZE WHICH MEETS STABILITY CRITERION OF THE SINK & SOURCE TERM
 = 0.1000E+31(WHEN MIN. R.F.=1)  AT K=   0, I=   0, J=   0

 MAXIMUM STEPSIZE WHICH MEETS STABILITY CRITERION OF THE DISPERSION TERM
 = 0.7285E-02(WHEN MIN. R.F.=1)  AT K=   3, I=   2, J=  30
     1 CALLS TO GCG PACKAGE FOR TRANSPORT TIME STEP   4 IN FLOW TIME STEP  32 STRESS PERIOD   2
    16 TOTAL ITERATIONS
0WARNING: NUMERICAL OSCILLATION ENCOUNTERED
 ONE OR MORE CELL CONCENTRATIONS LESS THAN CRHOREF
 SMALLEST DENSITY =  0.100E+04
 AT CELL (I,J,K) = (   3,  59,  27)

 
 SOLVING FOR HEAD 
 FLOW MODEL IS TRANSIENT
 FLOW MODEL CONTAINS CONSTANT-HEAD CELLS


 MAXIMUM STEPSIZE DURING WHICH ANY PARTICLE CANNOT MOVE MORE THAN ONE CELL
 = 0.1700    (WHEN MIN. R.F.=1)  AT K=   3, I=   2, J=  30

 MAXIMUM STEPSIZE WHICH MEETS STABILITY CRITERION OF THE ADVECTION TERM
 (FOR PURE FINITE-DIFFERENCE OPTION, MIXELM=0) 
 = 0.1348    (WHEN MIN. R.F.=1)  AT K=   3, I=   2, J=  31


 TOTAL NUMBER OF POINT SOURCES/SINKS PRESENT IN THE FLOW MODEL =   240

 MAXIMUM STEPSIZE WHICH MEETS STABILITY CRITERION OF THE SINK & SOURCE TERM
 = 0.1000E+31(WHEN MIN. R.F.=1)  AT K=   0, I=   0, J=   0

 MAXIMUM STEPSIZE WHICH MEETS STABILITY CRITERION OF THE DISPERSION TERM
 = 0.7285E-02(WHEN MIN. R.F.=1)  AT K=   3, I=   2, J=  30
     1 CALLS TO GCG PACKAGE FOR TRANSPORT TIME STEP   5 IN FLOW TIME STEP  32 STRESS PERIOD   2
    16 TOTAL ITERATIONS
0WARNING: NUMERICAL OSCILLATION ENCOUNTERED
 ONE OR MORE CELL CONCENTRATIONS LESS THAN CRHOREF
 SMALLEST DENSITY =  0.100E+04
 AT CELL (I,J,K) = (   3,  59,  27)

 
 SOLVING FOR HEAD 
 FLOW MODEL IS TRANSIENT
 FLOW MODEL CONTAINS CONSTANT-HEAD CELLS


 MAXIMUM STEPSIZE DURING WHICH ANY PARTICLE CANNOT MOVE MORE THAN ONE CELL
 = 0.1700    (WHEN MIN. R.F.=1)  AT K=   3, I=   2, J=  30

 MAXIMUM STEPSIZE WHICH MEETS STABILITY CRITERION OF THE ADVECTION TERM
 (FOR PURE FINITE-DIFFERENCE OPTION, MIXELM=0) 
 = 0.1348    (WHEN MIN. R.F.=1)  AT K=   3, I=   2, J=  31


 TOTAL NUMBER OF POINT SOURCES/SINKS PRESENT IN THE FLOW MODEL =   240

 MAXIMUM STEPSIZE WHICH MEETS STABILITY CRITERION OF THE SINK & SOURCE TERM
 = 0.1000E+31(WHEN MIN. R.F.=1)  AT K=   0, I=   0, J=   0

 MAXIMUM STEPSIZE WHICH MEETS STABILITY CRITERION OF THE DISPERSION TERM
 = 0.7285E-02(WHEN MIN. R.F.=1)  AT K=   3, I=   2, J=  30
     1 CALLS TO GCG PACKAGE FOR TRANSPORT TIME STEP   6 IN FLOW TIME STEP  32 STRESS PERIOD   2
    16 TOTAL ITERATIONS
0WARNING: NUMERICAL OSCILLATION ENCOUNTERED
 ONE OR MORE CELL CONCENTRATIONS LESS THAN CRHOREF
 SMALLEST DENSITY =  0.100E+04
 AT CELL (I,J,K) = (   3,  59,  27)

 
 SOLVING FOR HEAD 
 FLOW MODEL IS TRANSIENT
 FLOW MODEL CONTAINS CONSTANT-HEAD CELLS


 MAXIMUM STEPSIZE DURING WHICH ANY PARTICLE CANNOT MOVE MORE THAN ONE CELL
 = 0.1700    (WHEN MIN. R.F.=1)  AT K=   3, I=   2, J=  30

 MAXIMUM STEPSIZE WHICH MEETS STABILITY CRITERION OF THE ADVECTION TERM
 (FOR PURE FINITE-DIFFERENCE OPTION, MIXELM=0) 
 = 0.1348    (WHEN MIN. R.F.=1)  AT K=   3, I=   2, J=  31


 TOTAL NUMBER OF POINT SOURCES/SINKS PRESENT IN THE FLOW MODEL =   240

 MAXIMUM STEPSIZE WHICH MEETS STABILITY CRITERION OF THE SINK & SOURCE TERM
 = 0.1000E+31(WHEN MIN. R.F.=1)  AT K=   0, I=   0, J=   0

 MAXIMUM STEPSIZE WHICH MEETS STABILITY CRITERION OF THE DISPERSION TERM
 = 0.7285E-02(WHEN MIN. R.F.=1)  AT K=   3, I=   2, J=  30
     1 CALLS TO GCG PACKAGE FOR TRANSPORT TIME STEP   7 IN FLOW TIME STEP  32 STRESS PERIOD   2
    16 TOTAL ITERATIONS
0WARNING: NUMERICAL OSCILLATION ENCOUNTERED
 ONE OR MORE CELL CONCENTRATIONS LESS THAN CRHOREF
 SMALLEST DENSITY =  0.100E+04
 AT CELL (I,J,K) = (   3,  59,  27)

 
 SOLVING FOR HEAD 
 FLOW MODEL IS TRANSIENT
 FLOW MODEL CONTAINS CONSTANT-HEAD CELLS


 MAXIMUM STEPSIZE DURING WHICH ANY PARTICLE CANNOT MOVE MORE THAN ONE CELL
 = 0.1700    (WHEN MIN. R.F.=1)  AT K=   3, I=   2, J=  30

 MAXIMUM STEPSIZE WHICH MEETS STABILITY CRITERION OF THE ADVECTION TERM
 (FOR PURE FINITE-DIFFERENCE OPTION, MIXELM=0) 
 = 0.1348    (WHEN MIN. R.F.=1)  AT K=   3, I=   2, J=  31


 TOTAL NUMBER OF POINT SOURCES/SINKS PRESENT IN THE FLOW MODEL =   240

 MAXIMUM STEPSIZE WHICH MEETS STABILITY CRITERION OF THE SINK & SOURCE TERM
 = 0.1000E+31(WHEN MIN. R.F.=1)  AT K=   0, I=   0, J=   0

 MAXIMUM STEPSIZE WHICH MEETS STABILITY CRITERION OF THE DISPERSION TERM
 = 0.7285E-02(WHEN MIN. R.F.=1)  AT K=   3, I=   2, J=  30
     1 CALLS TO GCG PACKAGE FOR TRANSPORT TIME STEP   8 IN FLOW TIME STEP  32 STRESS PERIOD   2
    15 TOTAL ITERATIONS
  MAXIMUM CONCENTRATION CHANGES FOR EACH ITERATION:
  MAX. CHANGE LAYER,ROW,COL MAX. CHANGE LAYER,ROW,COL MAX. CHANGE LAYER,ROW,COL MAX. CHANGE LAYER,ROW,COL MAX. CHANGE LAYER,ROW,COL
 ------------------------------------------------------------------------------------------------------------------------------------
   0.1483E-02 ( 11,  1, 58)  0.2725E-03 (  7,  1, 59)  0.9053E-04 (  5,  2, 62)  0.3800E-04 (  5,  2, 53)  0.1610E-04 (  6,  1, 51)
   0.1117E-04 (  3,  3, 31)  0.7032E-05 (  4,  3, 31)  0.4859E-05 (  3,  3, 29)  0.3003E-05 (  3,  3, 32)  0.1730E-05 (  3,  3, 29)
   0.9044E-06 (  3,  3, 30)  0.5065E-06 (  4,  3, 30)  0.3071E-06 (  4,  3, 31)  0.1762E-06 (  3,  3, 31)  0.9478E-07 (  3,  2, 29)
0WARNING: NUMERICAL OSCILLATION ENCOUNTERED
 ONE OR MORE CELL CONCENTRATIONS LESS THAN CRHOREF
 SMALLEST DENSITY =  0.100E+04
 AT CELL (I,J,K) = (   3,  59,  27)



                                          ================================================
                                                         FROM TIME =   33.000     TO    34.000    

 
 SOLVING FOR HEAD 
 FLOW MODEL IS TRANSIENT
 FLOW MODEL CONTAINS CONSTANT-HEAD CELLS


 MAXIMUM STEPSIZE DURING WHICH ANY PARTICLE CANNOT MOVE MORE THAN ONE CELL
 = 0.1700    (WHEN MIN. R.F.=1)  AT K=   3, I=   2, J=  30

 MAXIMUM STEPSIZE WHICH MEETS STABILITY CRITERION OF THE ADVECTION TERM
 (FOR PURE FINITE-DIFFERENCE OPTION, MIXELM=0) 
 = 0.1348    (WHEN MIN. R.F.=1)  AT K=   3, I=   2, J=  31


 TOTAL NUMBER OF POINT SOURCES/SINKS PRESENT IN THE FLOW MODEL =   240

 MAXIMUM STEPSIZE WHICH MEETS STABILITY CRITERION OF THE SINK & SOURCE TERM
 = 0.1000E+31(WHEN MIN. R.F.=1)  AT K=   0, I=   0, J=   0

 MAXIMUM STEPSIZE WHICH MEETS STABILITY CRITERION OF THE DISPERSION TERM
 = 0.7285E-02(WHEN MIN. R.F.=1)  AT K=   3, I=   2, J=  30


     1 CALLS TO GCG PACKAGE FOR TRANSPORT TIME STEP   1 IN FLOW TIME STEP  33 STRESS PERIOD   2
    16 TOTAL ITERATIONS

 NO OUTPUT CONTROL FOR STRESS PERIOD    2   TIME STEP  33
0WARNING: NUMERICAL OSCILLATION ENCOUNTERED
 ONE OR MORE CELL CONCENTRATIONS LESS THAN CRHOREF
 SMALLEST DENSITY =  0.100E+04
 AT CELL (I,J,K) = (   3,  59,  27)

 
 SOLVING FOR HEAD 
 FLOW MODEL IS TRANSIENT
 FLOW MODEL CONTAINS CONSTANT-HEAD CELLS


 MAXIMUM STEPSIZE DURING WHICH ANY PARTICLE CANNOT MOVE MORE THAN ONE CELL
 = 0.1700    (WHEN MIN. R.F.=1)  AT K=   3, I=   2, J=  30

 MAXIMUM STEPSIZE WHICH MEETS STABILITY CRITERION OF THE ADVECTION TERM
 (FOR PURE FINITE-DIFFERENCE OPTION, MIXELM=0) 
 = 0.1348    (WHEN MIN. R.F.=1)  AT K=   3, I=   2, J=  31


 TOTAL NUMBER OF POINT SOURCES/SINKS PRESENT IN THE FLOW MODEL =   240

 MAXIMUM STEPSIZE WHICH MEETS STABILITY CRITERION OF THE SINK & SOURCE TERM
 = 0.1000E+31(WHEN MIN. R.F.=1)  AT K=   0, I=   0, J=   0

 MAXIMUM STEPSIZE WHICH MEETS STABILITY CRITERION OF THE DISPERSION TERM
 = 0.7285E-02(WHEN MIN. R.F.=1)  AT K=   3, I=   2, J=  30
     1 CALLS TO GCG PACKAGE FOR TRANSPORT TIME STEP   2 IN FLOW TIME STEP  33 STRESS PERIOD   2
    16 TOTAL ITERATIONS
0WARNING: NUMERICAL OSCILLATION ENCOUNTERED
 ONE OR MORE CELL CONCENTRATIONS LESS THAN CRHOREF
 SMALLEST DENSITY =  0.100E+04
 AT CELL (I,J,K) = (   3,  59,  27)

 
 SOLVING FOR HEAD 
 FLOW MODEL IS TRANSIENT
 FLOW MODEL CONTAINS CONSTANT-HEAD CELLS


 MAXIMUM STEPSIZE DURING WHICH ANY PARTICLE CANNOT MOVE MORE THAN ONE CELL
 = 0.1700    (WHEN MIN. R.F.=1)  AT K=   3, I=   2, J=  30

 MAXIMUM STEPSIZE WHICH MEETS STABILITY CRITERION OF THE ADVECTION TERM
 (FOR PURE FINITE-DIFFERENCE OPTION, MIXELM=0) 
 = 0.1348    (WHEN MIN. R.F.=1)  AT K=   3, I=   2, J=  31


 TOTAL NUMBER OF POINT SOURCES/SINKS PRESENT IN THE FLOW MODEL =   240

 MAXIMUM STEPSIZE WHICH MEETS STABILITY CRITERION OF THE SINK & SOURCE TERM
 = 0.1000E+31(WHEN MIN. R.F.=1)  AT K=   0, I=   0, J=   0

 MAXIMUM STEPSIZE WHICH MEETS STABILITY CRITERION OF THE DISPERSION TERM
 = 0.7285E-02(WHEN MIN. R.F.=1)  AT K=   3, I=   2, J=  30
     1 CALLS TO GCG PACKAGE FOR TRANSPORT TIME STEP   3 IN FLOW TIME STEP  33 STRESS PERIOD   2
    16 TOTAL ITERATIONS
0WARNING: NUMERICAL OSCILLATION ENCOUNTERED
 ONE OR MORE CELL CONCENTRATIONS LESS THAN CRHOREF
 SMALLEST DENSITY =  0.100E+04
 AT CELL (I,J,K) = (   3,  59,  27)

 
 SOLVING FOR HEAD 
 FLOW MODEL IS TRANSIENT
 FLOW MODEL CONTAINS CONSTANT-HEAD CELLS


 MAXIMUM STEPSIZE DURING WHICH ANY PARTICLE CANNOT MOVE MORE THAN ONE CELL
 = 0.1700    (WHEN MIN. R.F.=1)  AT K=   3, I=   2, J=  30

 MAXIMUM STEPSIZE WHICH MEETS STABILITY CRITERION OF THE ADVECTION TERM
 (FOR PURE FINITE-DIFFERENCE OPTION, MIXELM=0) 
 = 0.1348    (WHEN MIN. R.F.=1)  AT K=   3, I=   2, J=  31


 TOTAL NUMBER OF POINT SOURCES/SINKS PRESENT IN THE FLOW MODEL =   240

 MAXIMUM STEPSIZE WHICH MEETS STABILITY CRITERION OF THE SINK & SOURCE TERM
 = 0.1000E+31(WHEN MIN. R.F.=1)  AT K=   0, I=   0, J=   0

 MAXIMUM STEPSIZE WHICH MEETS STABILITY CRITERION OF THE DISPERSION TERM
 = 0.7285E-02(WHEN MIN. R.F.=1)  AT K=   3, I=   2, J=  30
     1 CALLS TO GCG PACKAGE FOR TRANSPORT TIME STEP   4 IN FLOW TIME STEP  33 STRESS PERIOD   2
    16 TOTAL ITERATIONS
0WARNING: NUMERICAL OSCILLATION ENCOUNTERED
 ONE OR MORE CELL CONCENTRATIONS LESS THAN CRHOREF
 SMALLEST DENSITY =  0.100E+04
 AT CELL (I,J,K) = (   3,  59,  27)

 
 SOLVING FOR HEAD 
 FLOW MODEL IS TRANSIENT
 FLOW MODEL CONTAINS CONSTANT-HEAD CELLS


 MAXIMUM STEPSIZE DURING WHICH ANY PARTICLE CANNOT MOVE MORE THAN ONE CELL
 = 0.1700    (WHEN MIN. R.F.=1)  AT K=   3, I=   2, J=  30

 MAXIMUM STEPSIZE WHICH MEETS STABILITY CRITERION OF THE ADVECTION TERM
 (FOR PURE FINITE-DIFFERENCE OPTION, MIXELM=0) 
 = 0.1348    (WHEN MIN. R.F.=1)  AT K=   3, I=   2, J=  31


 TOTAL NUMBER OF POINT SOURCES/SINKS PRESENT IN THE FLOW MODEL =   240

 MAXIMUM STEPSIZE WHICH MEETS STABILITY CRITERION OF THE SINK & SOURCE TERM
 = 0.1000E+31(WHEN MIN. R.F.=1)  AT K=   0, I=   0, J=   0

 MAXIMUM STEPSIZE WHICH MEETS STABILITY CRITERION OF THE DISPERSION TERM
 = 0.7285E-02(WHEN MIN. R.F.=1)  AT K=   3, I=   2, J=  30
     1 CALLS TO GCG PACKAGE FOR TRANSPORT TIME STEP   5 IN FLOW TIME STEP  33 STRESS PERIOD   2
    16 TOTAL ITERATIONS
0WARNING: NUMERICAL OSCILLATION ENCOUNTERED
 ONE OR MORE CELL CONCENTRATIONS LESS THAN CRHOREF
 SMALLEST DENSITY =  0.100E+04
 AT CELL (I,J,K) = (   3,  59,  27)

 
 SOLVING FOR HEAD 
 FLOW MODEL IS TRANSIENT
 FLOW MODEL CONTAINS CONSTANT-HEAD CELLS


 MAXIMUM STEPSIZE DURING WHICH ANY PARTICLE CANNOT MOVE MORE THAN ONE CELL
 = 0.1700    (WHEN MIN. R.F.=1)  AT K=   3, I=   2, J=  30

 MAXIMUM STEPSIZE WHICH MEETS STABILITY CRITERION OF THE ADVECTION TERM
 (FOR PURE FINITE-DIFFERENCE OPTION, MIXELM=0) 
 = 0.1348    (WHEN MIN. R.F.=1)  AT K=   3, I=   2, J=  31


 TOTAL NUMBER OF POINT SOURCES/SINKS PRESENT IN THE FLOW MODEL =   240

 MAXIMUM STEPSIZE WHICH MEETS STABILITY CRITERION OF THE SINK & SOURCE TERM
 = 0.1000E+31(WHEN MIN. R.F.=1)  AT K=   0, I=   0, J=   0

 MAXIMUM STEPSIZE WHICH MEETS STABILITY CRITERION OF THE DISPERSION TERM
 = 0.7285E-02(WHEN MIN. R.F.=1)  AT K=   3, I=   2, J=  30
     1 CALLS TO GCG PACKAGE FOR TRANSPORT TIME STEP   6 IN FLOW TIME STEP  33 STRESS PERIOD   2
    16 TOTAL ITERATIONS
0WARNING: NUMERICAL OSCILLATION ENCOUNTERED
 ONE OR MORE CELL CONCENTRATIONS LESS THAN CRHOREF
 SMALLEST DENSITY =  0.100E+04
 AT CELL (I,J,K) = (   3,  59,  27)

 
 SOLVING FOR HEAD 
 FLOW MODEL IS TRANSIENT
 FLOW MODEL CONTAINS CONSTANT-HEAD CELLS


 MAXIMUM STEPSIZE DURING WHICH ANY PARTICLE CANNOT MOVE MORE THAN ONE CELL
 = 0.1700    (WHEN MIN. R.F.=1)  AT K=   3, I=   2, J=  30

 MAXIMUM STEPSIZE WHICH MEETS STABILITY CRITERION OF THE ADVECTION TERM
 (FOR PURE FINITE-DIFFERENCE OPTION, MIXELM=0) 
 = 0.1348    (WHEN MIN. R.F.=1)  AT K=   3, I=   2, J=  31


 TOTAL NUMBER OF POINT SOURCES/SINKS PRESENT IN THE FLOW MODEL =   240

 MAXIMUM STEPSIZE WHICH MEETS STABILITY CRITERION OF THE SINK & SOURCE TERM
 = 0.1000E+31(WHEN MIN. R.F.=1)  AT K=   0, I=   0, J=   0

 MAXIMUM STEPSIZE WHICH MEETS STABILITY CRITERION OF THE DISPERSION TERM
 = 0.7284E-02(WHEN MIN. R.F.=1)  AT K=   3, I=   2, J=  30
     1 CALLS TO GCG PACKAGE FOR TRANSPORT TIME STEP   7 IN FLOW TIME STEP  33 STRESS PERIOD   2
    16 TOTAL ITERATIONS
0WARNING: NUMERICAL OSCILLATION ENCOUNTERED
 ONE OR MORE CELL CONCENTRATIONS LESS THAN CRHOREF
 SMALLEST DENSITY =  0.100E+04
 AT CELL (I,J,K) = (   3,  59,  27)

 
 SOLVING FOR HEAD 
 FLOW MODEL IS TRANSIENT
 FLOW MODEL CONTAINS CONSTANT-HEAD CELLS


 MAXIMUM STEPSIZE DURING WHICH ANY PARTICLE CANNOT MOVE MORE THAN ONE CELL
 = 0.1700    (WHEN MIN. R.F.=1)  AT K=   3, I=   2, J=  30

 MAXIMUM STEPSIZE WHICH MEETS STABILITY CRITERION OF THE ADVECTION TERM
 (FOR PURE FINITE-DIFFERENCE OPTION, MIXELM=0) 
 = 0.1348    (WHEN MIN. R.F.=1)  AT K=   3, I=   2, J=  31


 TOTAL NUMBER OF POINT SOURCES/SINKS PRESENT IN THE FLOW MODEL =   240

 MAXIMUM STEPSIZE WHICH MEETS STABILITY CRITERION OF THE SINK & SOURCE TERM
 = 0.1000E+31(WHEN MIN. R.F.=1)  AT K=   0, I=   0, J=   0

 MAXIMUM STEPSIZE WHICH MEETS STABILITY CRITERION OF THE DISPERSION TERM
 = 0.7284E-02(WHEN MIN. R.F.=1)  AT K=   3, I=   2, J=  30
     1 CALLS TO GCG PACKAGE FOR TRANSPORT TIME STEP   8 IN FLOW TIME STEP  33 STRESS PERIOD   2
    15 TOTAL ITERATIONS
  MAXIMUM CONCENTRATION CHANGES FOR EACH ITERATION:
  MAX. CHANGE LAYER,ROW,COL MAX. CHANGE LAYER,ROW,COL MAX. CHANGE LAYER,ROW,COL MAX. CHANGE LAYER,ROW,COL MAX. CHANGE LAYER,ROW,COL
 ------------------------------------------------------------------------------------------------------------------------------------
   0.1433E-02 ( 11,  1, 58)  0.2624E-03 (  9,  1, 57)  0.8629E-04 (  5,  2, 62)  0.3601E-04 (  5,  2, 53)  0.1505E-04 (  6,  1, 51)
   0.1051E-04 (  3,  3, 31)  0.6637E-05 (  4,  3, 31)  0.4579E-05 (  3,  3, 29)  0.2837E-05 (  3,  3, 32)  0.1631E-05 (  3,  3, 29)
   0.8550E-06 (  3,  3, 30)  0.4767E-06 (  4,  3, 30)  0.2903E-06 (  4,  3, 31)  0.1662E-06 (  3,  3, 31)  0.8984E-07 (  3,  2, 29)
0WARNING: NUMERICAL OSCILLATION ENCOUNTERED
 ONE OR MORE CELL CONCENTRATIONS LESS THAN CRHOREF
 SMALLEST DENSITY =  0.100E+04
 AT CELL (I,J,K) = (   3,  59,  27)



                                          ================================================
                                                         FROM TIME =   34.000     TO    35.000    

 
 SOLVING FOR HEAD 
 FLOW MODEL IS TRANSIENT
 FLOW MODEL CONTAINS CONSTANT-HEAD CELLS


 MAXIMUM STEPSIZE DURING WHICH ANY PARTICLE CANNOT MOVE MORE THAN ONE CELL
 = 0.1700    (WHEN MIN. R.F.=1)  AT K=   3, I=   2, J=  30

 MAXIMUM STEPSIZE WHICH MEETS STABILITY CRITERION OF THE ADVECTION TERM
 (FOR PURE FINITE-DIFFERENCE OPTION, MIXELM=0) 
 = 0.1348    (WHEN MIN. R.F.=1)  AT K=   3, I=   2, J=  31


 TOTAL NUMBER OF POINT SOURCES/SINKS PRESENT IN THE FLOW MODEL =   240

 MAXIMUM STEPSIZE WHICH MEETS STABILITY CRITERION OF THE SINK & SOURCE TERM
 = 0.1000E+31(WHEN MIN. R.F.=1)  AT K=   0, I=   0, J=   0

 MAXIMUM STEPSIZE WHICH MEETS STABILITY CRITERION OF THE DISPERSION TERM
 = 0.7284E-02(WHEN MIN. R.F.=1)  AT K=   3, I=   2, J=  30


     1 CALLS TO GCG PACKAGE FOR TRANSPORT TIME STEP   1 IN FLOW TIME STEP  34 STRESS PERIOD   2
    16 TOTAL ITERATIONS

 NO OUTPUT CONTROL FOR STRESS PERIOD    2   TIME STEP  34
0WARNING: NUMERICAL OSCILLATION ENCOUNTERED
 ONE OR MORE CELL CONCENTRATIONS LESS THAN CRHOREF
 SMALLEST DENSITY =  0.100E+04
 AT CELL (I,J,K) = (   3,  59,  27)

 
 SOLVING FOR HEAD 
 FLOW MODEL IS TRANSIENT
 FLOW MODEL CONTAINS CONSTANT-HEAD CELLS


 MAXIMUM STEPSIZE DURING WHICH ANY PARTICLE CANNOT MOVE MORE THAN ONE CELL
 = 0.1700    (WHEN MIN. R.F.=1)  AT K=   3, I=   2, J=  30

 MAXIMUM STEPSIZE WHICH MEETS STABILITY CRITERION OF THE ADVECTION TERM
 (FOR PURE FINITE-DIFFERENCE OPTION, MIXELM=0) 
 = 0.1348    (WHEN MIN. R.F.=1)  AT K=   3, I=   2, J=  31


 TOTAL NUMBER OF POINT SOURCES/SINKS PRESENT IN THE FLOW MODEL =   240

 MAXIMUM STEPSIZE WHICH MEETS STABILITY CRITERION OF THE SINK & SOURCE TERM
 = 0.1000E+31(WHEN MIN. R.F.=1)  AT K=   0, I=   0, J=   0

 MAXIMUM STEPSIZE WHICH MEETS STABILITY CRITERION OF THE DISPERSION TERM
 = 0.7284E-02(WHEN MIN. R.F.=1)  AT K=   3, I=   2, J=  30
     1 CALLS TO GCG PACKAGE FOR TRANSPORT TIME STEP   2 IN FLOW TIME STEP  34 STRESS PERIOD   2
    16 TOTAL ITERATIONS
0WARNING: NUMERICAL OSCILLATION ENCOUNTERED
 ONE OR MORE CELL CONCENTRATIONS LESS THAN CRHOREF
 SMALLEST DENSITY =  0.100E+04
 AT CELL (I,J,K) = (   3,  59,  27)

 
 SOLVING FOR HEAD 
 FLOW MODEL IS TRANSIENT
 FLOW MODEL CONTAINS CONSTANT-HEAD CELLS


 MAXIMUM STEPSIZE DURING WHICH ANY PARTICLE CANNOT MOVE MORE THAN ONE CELL
 = 0.1700    (WHEN MIN. R.F.=1)  AT K=   3, I=   2, J=  30

 MAXIMUM STEPSIZE WHICH MEETS STABILITY CRITERION OF THE ADVECTION TERM
 (FOR PURE FINITE-DIFFERENCE OPTION, MIXELM=0) 
 = 0.1348    (WHEN MIN. R.F.=1)  AT K=   3, I=   2, J=  31


 TOTAL NUMBER OF POINT SOURCES/SINKS PRESENT IN THE FLOW MODEL =   240

 MAXIMUM STEPSIZE WHICH MEETS STABILITY CRITERION OF THE SINK & SOURCE TERM
 = 0.1000E+31(WHEN MIN. R.F.=1)  AT K=   0, I=   0, J=   0

 MAXIMUM STEPSIZE WHICH MEETS STABILITY CRITERION OF THE DISPERSION TERM
 = 0.7284E-02(WHEN MIN. R.F.=1)  AT K=   3, I=   2, J=  30
     1 CALLS TO GCG PACKAGE FOR TRANSPORT TIME STEP   3 IN FLOW TIME STEP  34 STRESS PERIOD   2
    16 TOTAL ITERATIONS
0WARNING: NUMERICAL OSCILLATION ENCOUNTERED
 ONE OR MORE CELL CONCENTRATIONS LESS THAN CRHOREF
 SMALLEST DENSITY =  0.100E+04
 AT CELL (I,J,K) = (   3,  59,  27)

 
 SOLVING FOR HEAD 
 FLOW MODEL IS TRANSIENT
 FLOW MODEL CONTAINS CONSTANT-HEAD CELLS


 MAXIMUM STEPSIZE DURING WHICH ANY PARTICLE CANNOT MOVE MORE THAN ONE CELL
 = 0.1700    (WHEN MIN. R.F.=1)  AT K=   3, I=   2, J=  30

 MAXIMUM STEPSIZE WHICH MEETS STABILITY CRITERION OF THE ADVECTION TERM
 (FOR PURE FINITE-DIFFERENCE OPTION, MIXELM=0) 
 = 0.1348    (WHEN MIN. R.F.=1)  AT K=   3, I=   2, J=  31


 TOTAL NUMBER OF POINT SOURCES/SINKS PRESENT IN THE FLOW MODEL =   240

 MAXIMUM STEPSIZE WHICH MEETS STABILITY CRITERION OF THE SINK & SOURCE TERM
 = 0.1000E+31(WHEN MIN. R.F.=1)  AT K=   0, I=   0, J=   0

 MAXIMUM STEPSIZE WHICH MEETS STABILITY CRITERION OF THE DISPERSION TERM
 = 0.7284E-02(WHEN MIN. R.F.=1)  AT K=   3, I=   2, J=  30
     1 CALLS TO GCG PACKAGE FOR TRANSPORT TIME STEP   4 IN FLOW TIME STEP  34 STRESS PERIOD   2
    16 TOTAL ITERATIONS
0WARNING: NUMERICAL OSCILLATION ENCOUNTERED
 ONE OR MORE CELL CONCENTRATIONS LESS THAN CRHOREF
 SMALLEST DENSITY =  0.100E+04
 AT CELL (I,J,K) = (   3,  59,  27)

 
 SOLVING FOR HEAD 
 FLOW MODEL IS TRANSIENT
 FLOW MODEL CONTAINS CONSTANT-HEAD CELLS


 MAXIMUM STEPSIZE DURING WHICH ANY PARTICLE CANNOT MOVE MORE THAN ONE CELL
 = 0.1700    (WHEN MIN. R.F.=1)  AT K=   3, I=   2, J=  30

 MAXIMUM STEPSIZE WHICH MEETS STABILITY CRITERION OF THE ADVECTION TERM
 (FOR PURE FINITE-DIFFERENCE OPTION, MIXELM=0) 
 = 0.1348    (WHEN MIN. R.F.=1)  AT K=   3, I=   2, J=  31


 TOTAL NUMBER OF POINT SOURCES/SINKS PRESENT IN THE FLOW MODEL =   240

 MAXIMUM STEPSIZE WHICH MEETS STABILITY CRITERION OF THE SINK & SOURCE TERM
 = 0.1000E+31(WHEN MIN. R.F.=1)  AT K=   0, I=   0, J=   0

 MAXIMUM STEPSIZE WHICH MEETS STABILITY CRITERION OF THE DISPERSION TERM
 = 0.7284E-02(WHEN MIN. R.F.=1)  AT K=   3, I=   2, J=  30
     1 CALLS TO GCG PACKAGE FOR TRANSPORT TIME STEP   5 IN FLOW TIME STEP  34 STRESS PERIOD   2
    16 TOTAL ITERATIONS
0WARNING: NUMERICAL OSCILLATION ENCOUNTERED
 ONE OR MORE CELL CONCENTRATIONS LESS THAN CRHOREF
 SMALLEST DENSITY =  0.100E+04
 AT CELL (I,J,K) = (   3,  59,  27)

 
 SOLVING FOR HEAD 
 FLOW MODEL IS TRANSIENT
 FLOW MODEL CONTAINS CONSTANT-HEAD CELLS


 MAXIMUM STEPSIZE DURING WHICH ANY PARTICLE CANNOT MOVE MORE THAN ONE CELL
 = 0.1700    (WHEN MIN. R.F.=1)  AT K=   3, I=   2, J=  30

 MAXIMUM STEPSIZE WHICH MEETS STABILITY CRITERION OF THE ADVECTION TERM
 (FOR PURE FINITE-DIFFERENCE OPTION, MIXELM=0) 
 = 0.1348    (WHEN MIN. R.F.=1)  AT K=   3, I=   2, J=  31


 TOTAL NUMBER OF POINT SOURCES/SINKS PRESENT IN THE FLOW MODEL =   240

 MAXIMUM STEPSIZE WHICH MEETS STABILITY CRITERION OF THE SINK & SOURCE TERM
 = 0.1000E+31(WHEN MIN. R.F.=1)  AT K=   0, I=   0, J=   0

 MAXIMUM STEPSIZE WHICH MEETS STABILITY CRITERION OF THE DISPERSION TERM
 = 0.7284E-02(WHEN MIN. R.F.=1)  AT K=   3, I=   2, J=  30
     1 CALLS TO GCG PACKAGE FOR TRANSPORT TIME STEP   6 IN FLOW TIME STEP  34 STRESS PERIOD   2
    16 TOTAL ITERATIONS
0WARNING: NUMERICAL OSCILLATION ENCOUNTERED
 ONE OR MORE CELL CONCENTRATIONS LESS THAN CRHOREF
 SMALLEST DENSITY =  0.100E+04
 AT CELL (I,J,K) = (   3,  60,  27)

 
 SOLVING FOR HEAD 
 FLOW MODEL IS TRANSIENT
 FLOW MODEL CONTAINS CONSTANT-HEAD CELLS


 MAXIMUM STEPSIZE DURING WHICH ANY PARTICLE CANNOT MOVE MORE THAN ONE CELL
 = 0.1700    (WHEN MIN. R.F.=1)  AT K=   3, I=   2, J=  30

 MAXIMUM STEPSIZE WHICH MEETS STABILITY CRITERION OF THE ADVECTION TERM
 (FOR PURE FINITE-DIFFERENCE OPTION, MIXELM=0) 
 = 0.1348    (WHEN MIN. R.F.=1)  AT K=   3, I=   2, J=  31


 TOTAL NUMBER OF POINT SOURCES/SINKS PRESENT IN THE FLOW MODEL =   240

 MAXIMUM STEPSIZE WHICH MEETS STABILITY CRITERION OF THE SINK & SOURCE TERM
 = 0.1000E+31(WHEN MIN. R.F.=1)  AT K=   0, I=   0, J=   0

 MAXIMUM STEPSIZE WHICH MEETS STABILITY CRITERION OF THE DISPERSION TERM
 = 0.7284E-02(WHEN MIN. R.F.=1)  AT K=   3, I=   2, J=  30
     1 CALLS TO GCG PACKAGE FOR TRANSPORT TIME STEP   7 IN FLOW TIME STEP  34 STRESS PERIOD   2
    16 TOTAL ITERATIONS
0WARNING: NUMERICAL OSCILLATION ENCOUNTERED
 ONE OR MORE CELL CONCENTRATIONS LESS THAN CRHOREF
 SMALLEST DENSITY =  0.100E+04
 AT CELL (I,J,K) = (   2,  60,  27)

 
 SOLVING FOR HEAD 
 FLOW MODEL IS TRANSIENT
 FLOW MODEL CONTAINS CONSTANT-HEAD CELLS


 MAXIMUM STEPSIZE DURING WHICH ANY PARTICLE CANNOT MOVE MORE THAN ONE CELL
 = 0.1700    (WHEN MIN. R.F.=1)  AT K=   3, I=   2, J=  30

 MAXIMUM STEPSIZE WHICH MEETS STABILITY CRITERION OF THE ADVECTION TERM
 (FOR PURE FINITE-DIFFERENCE OPTION, MIXELM=0) 
 = 0.1348    (WHEN MIN. R.F.=1)  AT K=   3, I=   2, J=  31


 TOTAL NUMBER OF POINT SOURCES/SINKS PRESENT IN THE FLOW MODEL =   240

 MAXIMUM STEPSIZE WHICH MEETS STABILITY CRITERION OF THE SINK & SOURCE TERM
 = 0.1000E+31(WHEN MIN. R.F.=1)  AT K=   0, I=   0, J=   0

 MAXIMUM STEPSIZE WHICH MEETS STABILITY CRITERION OF THE DISPERSION TERM
 = 0.7284E-02(WHEN MIN. R.F.=1)  AT K=   3, I=   2, J=  30
     1 CALLS TO GCG PACKAGE FOR TRANSPORT TIME STEP   8 IN FLOW TIME STEP  34 STRESS PERIOD   2
    15 TOTAL ITERATIONS
  MAXIMUM CONCENTRATION CHANGES FOR EACH ITERATION:
  MAX. CHANGE LAYER,ROW,COL MAX. CHANGE LAYER,ROW,COL MAX. CHANGE LAYER,ROW,COL MAX. CHANGE LAYER,ROW,COL MAX. CHANGE LAYER,ROW,COL
 ------------------------------------------------------------------------------------------------------------------------------------
   0.1385E-02 ( 11,  1, 58)  0.2544E-03 (  9,  1, 57)  0.8232E-04 (  5,  2, 62)  0.3414E-04 (  5,  2, 53)  0.1409E-04 (  6,  1, 51)
   0.9913E-05 (  3,  3, 31)  0.6277E-05 (  4,  3, 31)  0.4322E-05 (  3,  3, 29)  0.2684E-05 (  3,  3, 32)  0.1540E-05 (  3,  3, 29)
   0.8094E-06 (  3,  3, 30)  0.4495E-06 (  4,  3, 30)  0.2748E-06 (  4,  3, 31)  0.1570E-06 (  3,  3, 31)  0.8526E-07 (  3,  2, 29)
0WARNING: NUMERICAL OSCILLATION ENCOUNTERED
 ONE OR MORE CELL CONCENTRATIONS LESS THAN CRHOREF
 SMALLEST DENSITY =  0.100E+04
 AT CELL (I,J,K) = (   3,  60,  27)



                                          ================================================
                                                         FROM TIME =   35.000     TO    36.000    

 
 SOLVING FOR HEAD 
 FLOW MODEL IS TRANSIENT
 FLOW MODEL CONTAINS CONSTANT-HEAD CELLS


 MAXIMUM STEPSIZE DURING WHICH ANY PARTICLE CANNOT MOVE MORE THAN ONE CELL
 = 0.1700    (WHEN MIN. R.F.=1)  AT K=   3, I=   2, J=  30

 MAXIMUM STEPSIZE WHICH MEETS STABILITY CRITERION OF THE ADVECTION TERM
 (FOR PURE FINITE-DIFFERENCE OPTION, MIXELM=0) 
 = 0.1348    (WHEN MIN. R.F.=1)  AT K=   3, I=   2, J=  31


 TOTAL NUMBER OF POINT SOURCES/SINKS PRESENT IN THE FLOW MODEL =   240

 MAXIMUM STEPSIZE WHICH MEETS STABILITY CRITERION OF THE SINK & SOURCE TERM
 = 0.1000E+31(WHEN MIN. R.F.=1)  AT K=   0, I=   0, J=   0

 MAXIMUM STEPSIZE WHICH MEETS STABILITY CRITERION OF THE DISPERSION TERM
 = 0.7284E-02(WHEN MIN. R.F.=1)  AT K=   3, I=   2, J=  30


     1 CALLS TO GCG PACKAGE FOR TRANSPORT TIME STEP   1 IN FLOW TIME STEP  35 STRESS PERIOD   2
    16 TOTAL ITERATIONS

 NO OUTPUT CONTROL FOR STRESS PERIOD    2   TIME STEP  35
0WARNING: NUMERICAL OSCILLATION ENCOUNTERED
 ONE OR MORE CELL CONCENTRATIONS LESS THAN CRHOREF
 SMALLEST DENSITY =  0.100E+04
 AT CELL (I,J,K) = (   3,  60,  27)

 
 SOLVING FOR HEAD 
 FLOW MODEL IS TRANSIENT
 FLOW MODEL CONTAINS CONSTANT-HEAD CELLS


 MAXIMUM STEPSIZE DURING WHICH ANY PARTICLE CANNOT MOVE MORE THAN ONE CELL
 = 0.1700    (WHEN MIN. R.F.=1)  AT K=   3, I=   2, J=  30

 MAXIMUM STEPSIZE WHICH MEETS STABILITY CRITERION OF THE ADVECTION TERM
 (FOR PURE FINITE-DIFFERENCE OPTION, MIXELM=0) 
 = 0.1348    (WHEN MIN. R.F.=1)  AT K=   3, I=   2, J=  31


 TOTAL NUMBER OF POINT SOURCES/SINKS PRESENT IN THE FLOW MODEL =   240

 MAXIMUM STEPSIZE WHICH MEETS STABILITY CRITERION OF THE SINK & SOURCE TERM
 = 0.1000E+31(WHEN MIN. R.F.=1)  AT K=   0, I=   0, J=   0

 MAXIMUM STEPSIZE WHICH MEETS STABILITY CRITERION OF THE DISPERSION TERM
 = 0.7284E-02(WHEN MIN. R.F.=1)  AT K=   3, I=   2, J=  30
     1 CALLS TO GCG PACKAGE FOR TRANSPORT TIME STEP   2 IN FLOW TIME STEP  35 STRESS PERIOD   2
    16 TOTAL ITERATIONS
0WARNING: NUMERICAL OSCILLATION ENCOUNTERED
 ONE OR MORE CELL CONCENTRATIONS LESS THAN CRHOREF
 SMALLEST DENSITY =  0.100E+04
 AT CELL (I,J,K) = (   3,  60,  27)

 
 SOLVING FOR HEAD 
 FLOW MODEL IS TRANSIENT
 FLOW MODEL CONTAINS CONSTANT-HEAD CELLS


 MAXIMUM STEPSIZE DURING WHICH ANY PARTICLE CANNOT MOVE MORE THAN ONE CELL
 = 0.1700    (WHEN MIN. R.F.=1)  AT K=   3, I=   2, J=  30

 MAXIMUM STEPSIZE WHICH MEETS STABILITY CRITERION OF THE ADVECTION TERM
 (FOR PURE FINITE-DIFFERENCE OPTION, MIXELM=0) 
 = 0.1348    (WHEN MIN. R.F.=1)  AT K=   3, I=   2, J=  31


 TOTAL NUMBER OF POINT SOURCES/SINKS PRESENT IN THE FLOW MODEL =   240

 MAXIMUM STEPSIZE WHICH MEETS STABILITY CRITERION OF THE SINK & SOURCE TERM
 = 0.1000E+31(WHEN MIN. R.F.=1)  AT K=   0, I=   0, J=   0

 MAXIMUM STEPSIZE WHICH MEETS STABILITY CRITERION OF THE DISPERSION TERM
 = 0.7284E-02(WHEN MIN. R.F.=1)  AT K=   3, I=   2, J=  30
     1 CALLS TO GCG PACKAGE FOR TRANSPORT TIME STEP   3 IN FLOW TIME STEP  35 STRESS PERIOD   2
    16 TOTAL ITERATIONS
0WARNING: NUMERICAL OSCILLATION ENCOUNTERED
 ONE OR MORE CELL CONCENTRATIONS LESS THAN CRHOREF
 SMALLEST DENSITY =  0.100E+04
 AT CELL (I,J,K) = (   3,  60,  27)

 
 SOLVING FOR HEAD 
 FLOW MODEL IS TRANSIENT
 FLOW MODEL CONTAINS CONSTANT-HEAD CELLS


 MAXIMUM STEPSIZE DURING WHICH ANY PARTICLE CANNOT MOVE MORE THAN ONE CELL
 = 0.1700    (WHEN MIN. R.F.=1)  AT K=   3, I=   2, J=  30

 MAXIMUM STEPSIZE WHICH MEETS STABILITY CRITERION OF THE ADVECTION TERM
 (FOR PURE FINITE-DIFFERENCE OPTION, MIXELM=0) 
 = 0.1348    (WHEN MIN. R.F.=1)  AT K=   3, I=   2, J=  31


 TOTAL NUMBER OF POINT SOURCES/SINKS PRESENT IN THE FLOW MODEL =   240

 MAXIMUM STEPSIZE WHICH MEETS STABILITY CRITERION OF THE SINK & SOURCE TERM
 = 0.1000E+31(WHEN MIN. R.F.=1)  AT K=   0, I=   0, J=   0

 MAXIMUM STEPSIZE WHICH MEETS STABILITY CRITERION OF THE DISPERSION TERM
 = 0.7284E-02(WHEN MIN. R.F.=1)  AT K=   3, I=   2, J=  30
     1 CALLS TO GCG PACKAGE FOR TRANSPORT TIME STEP   4 IN FLOW TIME STEP  35 STRESS PERIOD   2
    16 TOTAL ITERATIONS
0WARNING: NUMERICAL OSCILLATION ENCOUNTERED
 ONE OR MORE CELL CONCENTRATIONS LESS THAN CRHOREF
 SMALLEST DENSITY =  0.100E+04
 AT CELL (I,J,K) = (   3,  60,  27)

 
 SOLVING FOR HEAD 
 FLOW MODEL IS TRANSIENT
 FLOW MODEL CONTAINS CONSTANT-HEAD CELLS


 MAXIMUM STEPSIZE DURING WHICH ANY PARTICLE CANNOT MOVE MORE THAN ONE CELL
 = 0.1700    (WHEN MIN. R.F.=1)  AT K=   3, I=   2, J=  30

 MAXIMUM STEPSIZE WHICH MEETS STABILITY CRITERION OF THE ADVECTION TERM
 (FOR PURE FINITE-DIFFERENCE OPTION, MIXELM=0) 
 = 0.1348    (WHEN MIN. R.F.=1)  AT K=   3, I=   2, J=  31


 TOTAL NUMBER OF POINT SOURCES/SINKS PRESENT IN THE FLOW MODEL =   240

 MAXIMUM STEPSIZE WHICH MEETS STABILITY CRITERION OF THE SINK & SOURCE TERM
 = 0.1000E+31(WHEN MIN. R.F.=1)  AT K=   0, I=   0, J=   0

 MAXIMUM STEPSIZE WHICH MEETS STABILITY CRITERION OF THE DISPERSION TERM
 = 0.7284E-02(WHEN MIN. R.F.=1)  AT K=   3, I=   2, J=  30
     1 CALLS TO GCG PACKAGE FOR TRANSPORT TIME STEP   5 IN FLOW TIME STEP  35 STRESS PERIOD   2
    16 TOTAL ITERATIONS
0WARNING: NUMERICAL OSCILLATION ENCOUNTERED
 ONE OR MORE CELL CONCENTRATIONS LESS THAN CRHOREF
 SMALLEST DENSITY =  0.100E+04
 AT CELL (I,J,K) = (   3,  60,  27)

 
 SOLVING FOR HEAD 
 FLOW MODEL IS TRANSIENT
 FLOW MODEL CONTAINS CONSTANT-HEAD CELLS


 MAXIMUM STEPSIZE DURING WHICH ANY PARTICLE CANNOT MOVE MORE THAN ONE CELL
 = 0.1700    (WHEN MIN. R.F.=1)  AT K=   3, I=   2, J=  30

 MAXIMUM STEPSIZE WHICH MEETS STABILITY CRITERION OF THE ADVECTION TERM
 (FOR PURE FINITE-DIFFERENCE OPTION, MIXELM=0) 
 = 0.1348    (WHEN MIN. R.F.=1)  AT K=   3, I=   2, J=  31


 TOTAL NUMBER OF POINT SOURCES/SINKS PRESENT IN THE FLOW MODEL =   240

 MAXIMUM STEPSIZE WHICH MEETS STABILITY CRITERION OF THE SINK & SOURCE TERM
 = 0.1000E+31(WHEN MIN. R.F.=1)  AT K=   0, I=   0, J=   0

 MAXIMUM STEPSIZE WHICH MEETS STABILITY CRITERION OF THE DISPERSION TERM
 = 0.7284E-02(WHEN MIN. R.F.=1)  AT K=   3, I=   2, J=  30
     1 CALLS TO GCG PACKAGE FOR TRANSPORT TIME STEP   6 IN FLOW TIME STEP  35 STRESS PERIOD   2
    16 TOTAL ITERATIONS
0WARNING: NUMERICAL OSCILLATION ENCOUNTERED
 ONE OR MORE CELL CONCENTRATIONS LESS THAN CRHOREF
 SMALLEST DENSITY =  0.100E+04
 AT CELL (I,J,K) = (   3,  60,  27)

 
 SOLVING FOR HEAD 
 FLOW MODEL IS TRANSIENT
 FLOW MODEL CONTAINS CONSTANT-HEAD CELLS


 MAXIMUM STEPSIZE DURING WHICH ANY PARTICLE CANNOT MOVE MORE THAN ONE CELL
 = 0.1700    (WHEN MIN. R.F.=1)  AT K=   3, I=   2, J=  30

 MAXIMUM STEPSIZE WHICH MEETS STABILITY CRITERION OF THE ADVECTION TERM
 (FOR PURE FINITE-DIFFERENCE OPTION, MIXELM=0) 
 = 0.1348    (WHEN MIN. R.F.=1)  AT K=   3, I=   2, J=  31


 TOTAL NUMBER OF POINT SOURCES/SINKS PRESENT IN THE FLOW MODEL =   240

 MAXIMUM STEPSIZE WHICH MEETS STABILITY CRITERION OF THE SINK & SOURCE TERM
 = 0.1000E+31(WHEN MIN. R.F.=1)  AT K=   0, I=   0, J=   0

 MAXIMUM STEPSIZE WHICH MEETS STABILITY CRITERION OF THE DISPERSION TERM
 = 0.7284E-02(WHEN MIN. R.F.=1)  AT K=   3, I=   2, J=  30
     1 CALLS TO GCG PACKAGE FOR TRANSPORT TIME STEP   7 IN FLOW TIME STEP  35 STRESS PERIOD   2
    16 TOTAL ITERATIONS
0WARNING: NUMERICAL OSCILLATION ENCOUNTERED
 ONE OR MORE CELL CONCENTRATIONS LESS THAN CRHOREF
 SMALLEST DENSITY =  0.100E+04
 AT CELL (I,J,K) = (   3,  60,  27)

 
 SOLVING FOR HEAD 
 FLOW MODEL IS TRANSIENT
 FLOW MODEL CONTAINS CONSTANT-HEAD CELLS


 MAXIMUM STEPSIZE DURING WHICH ANY PARTICLE CANNOT MOVE MORE THAN ONE CELL
 = 0.1700    (WHEN MIN. R.F.=1)  AT K=   3, I=   2, J=  30

 MAXIMUM STEPSIZE WHICH MEETS STABILITY CRITERION OF THE ADVECTION TERM
 (FOR PURE FINITE-DIFFERENCE OPTION, MIXELM=0) 
 = 0.1348    (WHEN MIN. R.F.=1)  AT K=   3, I=   2, J=  31


 TOTAL NUMBER OF POINT SOURCES/SINKS PRESENT IN THE FLOW MODEL =   240

 MAXIMUM STEPSIZE WHICH MEETS STABILITY CRITERION OF THE SINK & SOURCE TERM
 = 0.1000E+31(WHEN MIN. R.F.=1)  AT K=   0, I=   0, J=   0

 MAXIMUM STEPSIZE WHICH MEETS STABILITY CRITERION OF THE DISPERSION TERM
 = 0.7284E-02(WHEN MIN. R.F.=1)  AT K=   3, I=   2, J=  30
     1 CALLS TO GCG PACKAGE FOR TRANSPORT TIME STEP   8 IN FLOW TIME STEP  35 STRESS PERIOD   2
    15 TOTAL ITERATIONS
  MAXIMUM CONCENTRATION CHANGES FOR EACH ITERATION:
  MAX. CHANGE LAYER,ROW,COL MAX. CHANGE LAYER,ROW,COL MAX. CHANGE LAYER,ROW,COL MAX. CHANGE LAYER,ROW,COL MAX. CHANGE LAYER,ROW,COL
 ------------------------------------------------------------------------------------------------------------------------------------
   0.1339E-02 ( 11,  1, 58)  0.2465E-03 (  9,  1, 57)  0.7860E-04 (  5,  2, 62)  0.3239E-04 (  5,  2, 53)  0.1321E-04 (  6,  1, 51)
   0.9364E-05 (  3,  3, 31)  0.5945E-05 (  4,  3, 31)  0.4086E-05 (  3,  3, 29)  0.2543E-05 (  3,  3, 32)  0.1457E-05 (  3,  3, 29)
   0.7671E-06 (  3,  3, 30)  0.4246E-06 (  3,  3, 33)  0.2604E-06 (  4,  3, 31)  0.1485E-06 (  3,  3, 31)  0.8098E-07 (  3,  2, 29)
0WARNING: NUMERICAL OSCILLATION ENCOUNTERED
 ONE OR MORE CELL CONCENTRATIONS LESS THAN CRHOREF
 SMALLEST DENSITY =  0.100E+04
 AT CELL (I,J,K) = (   3,  60,  27)



                                          ================================================
                                                         FROM TIME =   36.000     TO    37.000    

 
 SOLVING FOR HEAD 
 FLOW MODEL IS TRANSIENT
 FLOW MODEL CONTAINS CONSTANT-HEAD CELLS


 MAXIMUM STEPSIZE DURING WHICH ANY PARTICLE CANNOT MOVE MORE THAN ONE CELL
 = 0.1700    (WHEN MIN. R.F.=1)  AT K=   3, I=   2, J=  30

 MAXIMUM STEPSIZE WHICH MEETS STABILITY CRITERION OF THE ADVECTION TERM
 (FOR PURE FINITE-DIFFERENCE OPTION, MIXELM=0) 
 = 0.1348    (WHEN MIN. R.F.=1)  AT K=   3, I=   2, J=  31


 TOTAL NUMBER OF POINT SOURCES/SINKS PRESENT IN THE FLOW MODEL =   240

 MAXIMUM STEPSIZE WHICH MEETS STABILITY CRITERION OF THE SINK & SOURCE TERM
 = 0.1000E+31(WHEN MIN. R.F.=1)  AT K=   0, I=   0, J=   0

 MAXIMUM STEPSIZE WHICH MEETS STABILITY CRITERION OF THE DISPERSION TERM
 = 0.7284E-02(WHEN MIN. R.F.=1)  AT K=   3, I=   2, J=  30


     1 CALLS TO GCG PACKAGE FOR TRANSPORT TIME STEP   1 IN FLOW TIME STEP  36 STRESS PERIOD   2
    16 TOTAL ITERATIONS

 NO OUTPUT CONTROL FOR STRESS PERIOD    2   TIME STEP  36
0WARNING: NUMERICAL OSCILLATION ENCOUNTERED
 ONE OR MORE CELL CONCENTRATIONS LESS THAN CRHOREF
 SMALLEST DENSITY =  0.100E+04
 AT CELL (I,J,K) = (   2,  61,  27)

 
 SOLVING FOR HEAD 
 FLOW MODEL IS TRANSIENT
 FLOW MODEL CONTAINS CONSTANT-HEAD CELLS


 MAXIMUM STEPSIZE DURING WHICH ANY PARTICLE CANNOT MOVE MORE THAN ONE CELL
 = 0.1700    (WHEN MIN. R.F.=1)  AT K=   3, I=   2, J=  30

 MAXIMUM STEPSIZE WHICH MEETS STABILITY CRITERION OF THE ADVECTION TERM
 (FOR PURE FINITE-DIFFERENCE OPTION, MIXELM=0) 
 = 0.1348    (WHEN MIN. R.F.=1)  AT K=   3, I=   2, J=  31


 TOTAL NUMBER OF POINT SOURCES/SINKS PRESENT IN THE FLOW MODEL =   240

 MAXIMUM STEPSIZE WHICH MEETS STABILITY CRITERION OF THE SINK & SOURCE TERM
 = 0.1000E+31(WHEN MIN. R.F.=1)  AT K=   0, I=   0, J=   0

 MAXIMUM STEPSIZE WHICH MEETS STABILITY CRITERION OF THE DISPERSION TERM
 = 0.7284E-02(WHEN MIN. R.F.=1)  AT K=   3, I=   2, J=  30
     1 CALLS TO GCG PACKAGE FOR TRANSPORT TIME STEP   2 IN FLOW TIME STEP  36 STRESS PERIOD   2
    16 TOTAL ITERATIONS
0WARNING: NUMERICAL OSCILLATION ENCOUNTERED
 ONE OR MORE CELL CONCENTRATIONS LESS THAN CRHOREF
 SMALLEST DENSITY =  0.100E+04
 AT CELL (I,J,K) = (   2,  61,  27)

 
 SOLVING FOR HEAD 
 FLOW MODEL IS TRANSIENT
 FLOW MODEL CONTAINS CONSTANT-HEAD CELLS


 MAXIMUM STEPSIZE DURING WHICH ANY PARTICLE CANNOT MOVE MORE THAN ONE CELL
 = 0.1700    (WHEN MIN. R.F.=1)  AT K=   3, I=   2, J=  30

 MAXIMUM STEPSIZE WHICH MEETS STABILITY CRITERION OF THE ADVECTION TERM
 (FOR PURE FINITE-DIFFERENCE OPTION, MIXELM=0) 
 = 0.1348    (WHEN MIN. R.F.=1)  AT K=   3, I=   2, J=  31


 TOTAL NUMBER OF POINT SOURCES/SINKS PRESENT IN THE FLOW MODEL =   240

 MAXIMUM STEPSIZE WHICH MEETS STABILITY CRITERION OF THE SINK & SOURCE TERM
 = 0.1000E+31(WHEN MIN. R.F.=1)  AT K=   0, I=   0, J=   0

 MAXIMUM STEPSIZE WHICH MEETS STABILITY CRITERION OF THE DISPERSION TERM
 = 0.7284E-02(WHEN MIN. R.F.=1)  AT K=   3, I=   2, J=  30
     1 CALLS TO GCG PACKAGE FOR TRANSPORT TIME STEP   3 IN FLOW TIME STEP  36 STRESS PERIOD   2
    16 TOTAL ITERATIONS
0WARNING: NUMERICAL OSCILLATION ENCOUNTERED
 ONE OR MORE CELL CONCENTRATIONS LESS THAN CRHOREF
 SMALLEST DENSITY =  0.100E+04
 AT CELL (I,J,K) = (   2,  61,  27)

 
 SOLVING FOR HEAD 
 FLOW MODEL IS TRANSIENT
 FLOW MODEL CONTAINS CONSTANT-HEAD CELLS


 MAXIMUM STEPSIZE DURING WHICH ANY PARTICLE CANNOT MOVE MORE THAN ONE CELL
 = 0.1700    (WHEN MIN. R.F.=1)  AT K=   3, I=   2, J=  30

 MAXIMUM STEPSIZE WHICH MEETS STABILITY CRITERION OF THE ADVECTION TERM
 (FOR PURE FINITE-DIFFERENCE OPTION, MIXELM=0) 
 = 0.1348    (WHEN MIN. R.F.=1)  AT K=   3, I=   2, J=  31


 TOTAL NUMBER OF POINT SOURCES/SINKS PRESENT IN THE FLOW MODEL =   240

 MAXIMUM STEPSIZE WHICH MEETS STABILITY CRITERION OF THE SINK & SOURCE TERM
 = 0.1000E+31(WHEN MIN. R.F.=1)  AT K=   0, I=   0, J=   0

 MAXIMUM STEPSIZE WHICH MEETS STABILITY CRITERION OF THE DISPERSION TERM
 = 0.7284E-02(WHEN MIN. R.F.=1)  AT K=   3, I=   2, J=  30
     1 CALLS TO GCG PACKAGE FOR TRANSPORT TIME STEP   4 IN FLOW TIME STEP  36 STRESS PERIOD   2
    16 TOTAL ITERATIONS
0WARNING: NUMERICAL OSCILLATION ENCOUNTERED
 ONE OR MORE CELL CONCENTRATIONS LESS THAN CRHOREF
 SMALLEST DENSITY =  0.100E+04
 AT CELL (I,J,K) = (   3,  60,  27)

 
 SOLVING FOR HEAD 
 FLOW MODEL IS TRANSIENT
 FLOW MODEL CONTAINS CONSTANT-HEAD CELLS


 MAXIMUM STEPSIZE DURING WHICH ANY PARTICLE CANNOT MOVE MORE THAN ONE CELL
 = 0.1700    (WHEN MIN. R.F.=1)  AT K=   3, I=   2, J=  30

 MAXIMUM STEPSIZE WHICH MEETS STABILITY CRITERION OF THE ADVECTION TERM
 (FOR PURE FINITE-DIFFERENCE OPTION, MIXELM=0) 
 = 0.1348    (WHEN MIN. R.F.=1)  AT K=   3, I=   2, J=  31


 TOTAL NUMBER OF POINT SOURCES/SINKS PRESENT IN THE FLOW MODEL =   240

 MAXIMUM STEPSIZE WHICH MEETS STABILITY CRITERION OF THE SINK & SOURCE TERM
 = 0.1000E+31(WHEN MIN. R.F.=1)  AT K=   0, I=   0, J=   0

 MAXIMUM STEPSIZE WHICH MEETS STABILITY CRITERION OF THE DISPERSION TERM
 = 0.7283E-02(WHEN MIN. R.F.=1)  AT K=   3, I=   2, J=  30
     1 CALLS TO GCG PACKAGE FOR TRANSPORT TIME STEP   5 IN FLOW TIME STEP  36 STRESS PERIOD   2
    16 TOTAL ITERATIONS
0WARNING: NUMERICAL OSCILLATION ENCOUNTERED
 ONE OR MORE CELL CONCENTRATIONS LESS THAN CRHOREF
 SMALLEST DENSITY =  0.100E+04
 AT CELL (I,J,K) = (   2,  61,  27)

 
 SOLVING FOR HEAD 
 FLOW MODEL IS TRANSIENT
 FLOW MODEL CONTAINS CONSTANT-HEAD CELLS


 MAXIMUM STEPSIZE DURING WHICH ANY PARTICLE CANNOT MOVE MORE THAN ONE CELL
 = 0.1700    (WHEN MIN. R.F.=1)  AT K=   3, I=   2, J=  30

 MAXIMUM STEPSIZE WHICH MEETS STABILITY CRITERION OF THE ADVECTION TERM
 (FOR PURE FINITE-DIFFERENCE OPTION, MIXELM=0) 
 = 0.1348    (WHEN MIN. R.F.=1)  AT K=   3, I=   2, J=  31


 TOTAL NUMBER OF POINT SOURCES/SINKS PRESENT IN THE FLOW MODEL =   240

 MAXIMUM STEPSIZE WHICH MEETS STABILITY CRITERION OF THE SINK & SOURCE TERM
 = 0.1000E+31(WHEN MIN. R.F.=1)  AT K=   0, I=   0, J=   0

 MAXIMUM STEPSIZE WHICH MEETS STABILITY CRITERION OF THE DISPERSION TERM
 = 0.7283E-02(WHEN MIN. R.F.=1)  AT K=   3, I=   2, J=  30
     1 CALLS TO GCG PACKAGE FOR TRANSPORT TIME STEP   6 IN FLOW TIME STEP  36 STRESS PERIOD   2
    16 TOTAL ITERATIONS
0WARNING: NUMERICAL OSCILLATION ENCOUNTERED
 ONE OR MORE CELL CONCENTRATIONS LESS THAN CRHOREF
 SMALLEST DENSITY =  0.100E+04
 AT CELL (I,J,K) = (   2,  61,  27)

 
 SOLVING FOR HEAD 
 FLOW MODEL IS TRANSIENT
 FLOW MODEL CONTAINS CONSTANT-HEAD CELLS


 MAXIMUM STEPSIZE DURING WHICH ANY PARTICLE CANNOT MOVE MORE THAN ONE CELL
 = 0.1700    (WHEN MIN. R.F.=1)  AT K=   3, I=   2, J=  30

 MAXIMUM STEPSIZE WHICH MEETS STABILITY CRITERION OF THE ADVECTION TERM
 (FOR PURE FINITE-DIFFERENCE OPTION, MIXELM=0) 
 = 0.1348    (WHEN MIN. R.F.=1)  AT K=   3, I=   2, J=  31


 TOTAL NUMBER OF POINT SOURCES/SINKS PRESENT IN THE FLOW MODEL =   240

 MAXIMUM STEPSIZE WHICH MEETS STABILITY CRITERION OF THE SINK & SOURCE TERM
 = 0.1000E+31(WHEN MIN. R.F.=1)  AT K=   0, I=   0, J=   0

 MAXIMUM STEPSIZE WHICH MEETS STABILITY CRITERION OF THE DISPERSION TERM
 = 0.7283E-02(WHEN MIN. R.F.=1)  AT K=   3, I=   2, J=  30
     1 CALLS TO GCG PACKAGE FOR TRANSPORT TIME STEP   7 IN FLOW TIME STEP  36 STRESS PERIOD   2
    16 TOTAL ITERATIONS
0WARNING: NUMERICAL OSCILLATION ENCOUNTERED
 ONE OR MORE CELL CONCENTRATIONS LESS THAN CRHOREF
 SMALLEST DENSITY =  0.100E+04
 AT CELL (I,J,K) = (   2,  61,  27)

 
 SOLVING FOR HEAD 
 FLOW MODEL IS TRANSIENT
 FLOW MODEL CONTAINS CONSTANT-HEAD CELLS


 MAXIMUM STEPSIZE DURING WHICH ANY PARTICLE CANNOT MOVE MORE THAN ONE CELL
 = 0.1700    (WHEN MIN. R.F.=1)  AT K=   3, I=   2, J=  30

 MAXIMUM STEPSIZE WHICH MEETS STABILITY CRITERION OF THE ADVECTION TERM
 (FOR PURE FINITE-DIFFERENCE OPTION, MIXELM=0) 
 = 0.1348    (WHEN MIN. R.F.=1)  AT K=   3, I=   2, J=  31


 TOTAL NUMBER OF POINT SOURCES/SINKS PRESENT IN THE FLOW MODEL =   240

 MAXIMUM STEPSIZE WHICH MEETS STABILITY CRITERION OF THE SINK & SOURCE TERM
 = 0.1000E+31(WHEN MIN. R.F.=1)  AT K=   0, I=   0, J=   0

 MAXIMUM STEPSIZE WHICH MEETS STABILITY CRITERION OF THE DISPERSION TERM
 = 0.7283E-02(WHEN MIN. R.F.=1)  AT K=   3, I=   2, J=  30
     1 CALLS TO GCG PACKAGE FOR TRANSPORT TIME STEP   8 IN FLOW TIME STEP  36 STRESS PERIOD   2
    15 TOTAL ITERATIONS
  MAXIMUM CONCENTRATION CHANGES FOR EACH ITERATION:
  MAX. CHANGE LAYER,ROW,COL MAX. CHANGE LAYER,ROW,COL MAX. CHANGE LAYER,ROW,COL MAX. CHANGE LAYER,ROW,COL MAX. CHANGE LAYER,ROW,COL
 ------------------------------------------------------------------------------------------------------------------------------------
   0.1311E-02 ( 13,  1, 59)  0.2388E-03 (  9,  1, 57)  0.7511E-04 (  5,  2, 62)  0.3075E-04 (  5,  2, 53)  0.1240E-04 (  6,  1, 51)
   0.8861E-05 (  3,  3, 31)  0.5638E-05 (  4,  3, 31)  0.3870E-05 (  3,  3, 29)  0.2412E-05 (  3,  3, 32)  0.1380E-05 (  3,  3, 29)
   0.7277E-06 (  3,  3, 30)  0.4020E-06 (  3,  3, 33)  0.2469E-06 (  4,  3, 31)  0.1407E-06 (  3,  3, 31)  0.7697E-07 (  3,  2, 29)
0WARNING: NUMERICAL OSCILLATION ENCOUNTERED
 ONE OR MORE CELL CONCENTRATIONS LESS THAN CRHOREF
 SMALLEST DENSITY =  0.100E+04
 AT CELL (I,J,K) = (   2,  61,  27)



                                          ================================================
                                                         FROM TIME =   37.000     TO    38.000    

 
 SOLVING FOR HEAD 
 FLOW MODEL IS TRANSIENT
 FLOW MODEL CONTAINS CONSTANT-HEAD CELLS


 MAXIMUM STEPSIZE DURING WHICH ANY PARTICLE CANNOT MOVE MORE THAN ONE CELL
 = 0.1700    (WHEN MIN. R.F.=1)  AT K=   3, I=   2, J=  30

 MAXIMUM STEPSIZE WHICH MEETS STABILITY CRITERION OF THE ADVECTION TERM
 (FOR PURE FINITE-DIFFERENCE OPTION, MIXELM=0) 
 = 0.1348    (WHEN MIN. R.F.=1)  AT K=   3, I=   2, J=  31


 TOTAL NUMBER OF POINT SOURCES/SINKS PRESENT IN THE FLOW MODEL =   240

 MAXIMUM STEPSIZE WHICH MEETS STABILITY CRITERION OF THE SINK & SOURCE TERM
 = 0.1000E+31(WHEN MIN. R.F.=1)  AT K=   0, I=   0, J=   0

 MAXIMUM STEPSIZE WHICH MEETS STABILITY CRITERION OF THE DISPERSION TERM
 = 0.7283E-02(WHEN MIN. R.F.=1)  AT K=   3, I=   2, J=  30


     1 CALLS TO GCG PACKAGE FOR TRANSPORT TIME STEP   1 IN FLOW TIME STEP  37 STRESS PERIOD   2
    16 TOTAL ITERATIONS

 NO OUTPUT CONTROL FOR STRESS PERIOD    2   TIME STEP  37
0WARNING: NUMERICAL OSCILLATION ENCOUNTERED
 ONE OR MORE CELL CONCENTRATIONS LESS THAN CRHOREF
 SMALLEST DENSITY =  0.100E+04
 AT CELL (I,J,K) = (   2,  61,  27)

 
 SOLVING FOR HEAD 
 FLOW MODEL IS TRANSIENT
 FLOW MODEL CONTAINS CONSTANT-HEAD CELLS


 MAXIMUM STEPSIZE DURING WHICH ANY PARTICLE CANNOT MOVE MORE THAN ONE CELL
 = 0.1700    (WHEN MIN. R.F.=1)  AT K=   3, I=   2, J=  30

 MAXIMUM STEPSIZE WHICH MEETS STABILITY CRITERION OF THE ADVECTION TERM
 (FOR PURE FINITE-DIFFERENCE OPTION, MIXELM=0) 
 = 0.1348    (WHEN MIN. R.F.=1)  AT K=   3, I=   2, J=  31


 TOTAL NUMBER OF POINT SOURCES/SINKS PRESENT IN THE FLOW MODEL =   240

 MAXIMUM STEPSIZE WHICH MEETS STABILITY CRITERION OF THE SINK & SOURCE TERM
 = 0.1000E+31(WHEN MIN. R.F.=1)  AT K=   0, I=   0, J=   0

 MAXIMUM STEPSIZE WHICH MEETS STABILITY CRITERION OF THE DISPERSION TERM
 = 0.7283E-02(WHEN MIN. R.F.=1)  AT K=   3, I=   2, J=  30
     1 CALLS TO GCG PACKAGE FOR TRANSPORT TIME STEP   2 IN FLOW TIME STEP  37 STRESS PERIOD   2
    16 TOTAL ITERATIONS
0WARNING: NUMERICAL OSCILLATION ENCOUNTERED
 ONE OR MORE CELL CONCENTRATIONS LESS THAN CRHOREF
 SMALLEST DENSITY =  0.100E+04
 AT CELL (I,J,K) = (   2,  61,  27)

 
 SOLVING FOR HEAD 
 FLOW MODEL IS TRANSIENT
 FLOW MODEL CONTAINS CONSTANT-HEAD CELLS


 MAXIMUM STEPSIZE DURING WHICH ANY PARTICLE CANNOT MOVE MORE THAN ONE CELL
 = 0.1700    (WHEN MIN. R.F.=1)  AT K=   3, I=   2, J=  30

 MAXIMUM STEPSIZE WHICH MEETS STABILITY CRITERION OF THE ADVECTION TERM
 (FOR PURE FINITE-DIFFERENCE OPTION, MIXELM=0) 
 = 0.1348    (WHEN MIN. R.F.=1)  AT K=   3, I=   2, J=  31


 TOTAL NUMBER OF POINT SOURCES/SINKS PRESENT IN THE FLOW MODEL =   240

 MAXIMUM STEPSIZE WHICH MEETS STABILITY CRITERION OF THE SINK & SOURCE TERM
 = 0.1000E+31(WHEN MIN. R.F.=1)  AT K=   0, I=   0, J=   0

 MAXIMUM STEPSIZE WHICH MEETS STABILITY CRITERION OF THE DISPERSION TERM
 = 0.7283E-02(WHEN MIN. R.F.=1)  AT K=   3, I=   2, J=  30
     1 CALLS TO GCG PACKAGE FOR TRANSPORT TIME STEP   3 IN FLOW TIME STEP  37 STRESS PERIOD   2
    16 TOTAL ITERATIONS
0WARNING: NUMERICAL OSCILLATION ENCOUNTERED
 ONE OR MORE CELL CONCENTRATIONS LESS THAN CRHOREF
 SMALLEST DENSITY =  0.100E+04
 AT CELL (I,J,K) = (   2,  61,  27)

 
 SOLVING FOR HEAD 
 FLOW MODEL IS TRANSIENT
 FLOW MODEL CONTAINS CONSTANT-HEAD CELLS


 MAXIMUM STEPSIZE DURING WHICH ANY PARTICLE CANNOT MOVE MORE THAN ONE CELL
 = 0.1700    (WHEN MIN. R.F.=1)  AT K=   3, I=   2, J=  30

 MAXIMUM STEPSIZE WHICH MEETS STABILITY CRITERION OF THE ADVECTION TERM
 (FOR PURE FINITE-DIFFERENCE OPTION, MIXELM=0) 
 = 0.1348    (WHEN MIN. R.F.=1)  AT K=   3, I=   2, J=  31


 TOTAL NUMBER OF POINT SOURCES/SINKS PRESENT IN THE FLOW MODEL =   240

 MAXIMUM STEPSIZE WHICH MEETS STABILITY CRITERION OF THE SINK & SOURCE TERM
 = 0.1000E+31(WHEN MIN. R.F.=1)  AT K=   0, I=   0, J=   0

 MAXIMUM STEPSIZE WHICH MEETS STABILITY CRITERION OF THE DISPERSION TERM
 = 0.7283E-02(WHEN MIN. R.F.=1)  AT K=   3, I=   2, J=  30
     1 CALLS TO GCG PACKAGE FOR TRANSPORT TIME STEP   4 IN FLOW TIME STEP  37 STRESS PERIOD   2
    16 TOTAL ITERATIONS
0WARNING: NUMERICAL OSCILLATION ENCOUNTERED
 ONE OR MORE CELL CONCENTRATIONS LESS THAN CRHOREF
 SMALLEST DENSITY =  0.100E+04
 AT CELL (I,J,K) = (   2,  61,  27)

 
 SOLVING FOR HEAD 
 FLOW MODEL IS TRANSIENT
 FLOW MODEL CONTAINS CONSTANT-HEAD CELLS


 MAXIMUM STEPSIZE DURING WHICH ANY PARTICLE CANNOT MOVE MORE THAN ONE CELL
 = 0.1700    (WHEN MIN. R.F.=1)  AT K=   3, I=   2, J=  30

 MAXIMUM STEPSIZE WHICH MEETS STABILITY CRITERION OF THE ADVECTION TERM
 (FOR PURE FINITE-DIFFERENCE OPTION, MIXELM=0) 
 = 0.1348    (WHEN MIN. R.F.=1)  AT K=   3, I=   2, J=  31


 TOTAL NUMBER OF POINT SOURCES/SINKS PRESENT IN THE FLOW MODEL =   240

 MAXIMUM STEPSIZE WHICH MEETS STABILITY CRITERION OF THE SINK & SOURCE TERM
 = 0.1000E+31(WHEN MIN. R.F.=1)  AT K=   0, I=   0, J=   0

 MAXIMUM STEPSIZE WHICH MEETS STABILITY CRITERION OF THE DISPERSION TERM
 = 0.7283E-02(WHEN MIN. R.F.=1)  AT K=   3, I=   2, J=  30
     1 CALLS TO GCG PACKAGE FOR TRANSPORT TIME STEP   5 IN FLOW TIME STEP  37 STRESS PERIOD   2
    16 TOTAL ITERATIONS
0WARNING: NUMERICAL OSCILLATION ENCOUNTERED
 ONE OR MORE CELL CONCENTRATIONS LESS THAN CRHOREF
 SMALLEST DENSITY =  0.100E+04
 AT CELL (I,J,K) = (   2,  61,  27)

 
 SOLVING FOR HEAD 
 FLOW MODEL IS TRANSIENT
 FLOW MODEL CONTAINS CONSTANT-HEAD CELLS


 MAXIMUM STEPSIZE DURING WHICH ANY PARTICLE CANNOT MOVE MORE THAN ONE CELL
 = 0.1700    (WHEN MIN. R.F.=1)  AT K=   3, I=   2, J=  30

 MAXIMUM STEPSIZE WHICH MEETS STABILITY CRITERION OF THE ADVECTION TERM
 (FOR PURE FINITE-DIFFERENCE OPTION, MIXELM=0) 
 = 0.1348    (WHEN MIN. R.F.=1)  AT K=   3, I=   2, J=  31


 TOTAL NUMBER OF POINT SOURCES/SINKS PRESENT IN THE FLOW MODEL =   240

 MAXIMUM STEPSIZE WHICH MEETS STABILITY CRITERION OF THE SINK & SOURCE TERM
 = 0.1000E+31(WHEN MIN. R.F.=1)  AT K=   0, I=   0, J=   0

 MAXIMUM STEPSIZE WHICH MEETS STABILITY CRITERION OF THE DISPERSION TERM
 = 0.7283E-02(WHEN MIN. R.F.=1)  AT K=   3, I=   2, J=  30
     1 CALLS TO GCG PACKAGE FOR TRANSPORT TIME STEP   6 IN FLOW TIME STEP  37 STRESS PERIOD   2
    16 TOTAL ITERATIONS
0WARNING: NUMERICAL OSCILLATION ENCOUNTERED
 ONE OR MORE CELL CONCENTRATIONS LESS THAN CRHOREF
 SMALLEST DENSITY =  0.100E+04
 AT CELL (I,J,K) = (   2,  61,  27)

 
 SOLVING FOR HEAD 
 FLOW MODEL IS TRANSIENT
 FLOW MODEL CONTAINS CONSTANT-HEAD CELLS


 MAXIMUM STEPSIZE DURING WHICH ANY PARTICLE CANNOT MOVE MORE THAN ONE CELL
 = 0.1700    (WHEN MIN. R.F.=1)  AT K=   3, I=   2, J=  30

 MAXIMUM STEPSIZE WHICH MEETS STABILITY CRITERION OF THE ADVECTION TERM
 (FOR PURE FINITE-DIFFERENCE OPTION, MIXELM=0) 
 = 0.1348    (WHEN MIN. R.F.=1)  AT K=   3, I=   2, J=  31


 TOTAL NUMBER OF POINT SOURCES/SINKS PRESENT IN THE FLOW MODEL =   240

 MAXIMUM STEPSIZE WHICH MEETS STABILITY CRITERION OF THE SINK & SOURCE TERM
 = 0.1000E+31(WHEN MIN. R.F.=1)  AT K=   0, I=   0, J=   0

 MAXIMUM STEPSIZE WHICH MEETS STABILITY CRITERION OF THE DISPERSION TERM
 = 0.7283E-02(WHEN MIN. R.F.=1)  AT K=   3, I=   2, J=  30
     1 CALLS TO GCG PACKAGE FOR TRANSPORT TIME STEP   7 IN FLOW TIME STEP  37 STRESS PERIOD   2
    16 TOTAL ITERATIONS
0WARNING: NUMERICAL OSCILLATION ENCOUNTERED
 ONE OR MORE CELL CONCENTRATIONS LESS THAN CRHOREF
 SMALLEST DENSITY =  0.100E+04
 AT CELL (I,J,K) = (   2,  61,  27)

 
 SOLVING FOR HEAD 
 FLOW MODEL IS TRANSIENT
 FLOW MODEL CONTAINS CONSTANT-HEAD CELLS


 MAXIMUM STEPSIZE DURING WHICH ANY PARTICLE CANNOT MOVE MORE THAN ONE CELL
 = 0.1700    (WHEN MIN. R.F.=1)  AT K=   3, I=   2, J=  30

 MAXIMUM STEPSIZE WHICH MEETS STABILITY CRITERION OF THE ADVECTION TERM
 (FOR PURE FINITE-DIFFERENCE OPTION, MIXELM=0) 
 = 0.1348    (WHEN MIN. R.F.=1)  AT K=   3, I=   2, J=  31


 TOTAL NUMBER OF POINT SOURCES/SINKS PRESENT IN THE FLOW MODEL =   240

 MAXIMUM STEPSIZE WHICH MEETS STABILITY CRITERION OF THE SINK & SOURCE TERM
 = 0.1000E+31(WHEN MIN. R.F.=1)  AT K=   0, I=   0, J=   0

 MAXIMUM STEPSIZE WHICH MEETS STABILITY CRITERION OF THE DISPERSION TERM
 = 0.7283E-02(WHEN MIN. R.F.=1)  AT K=   3, I=   2, J=  30
     1 CALLS TO GCG PACKAGE FOR TRANSPORT TIME STEP   8 IN FLOW TIME STEP  37 STRESS PERIOD   2
    15 TOTAL ITERATIONS
  MAXIMUM CONCENTRATION CHANGES FOR EACH ITERATION:
  MAX. CHANGE LAYER,ROW,COL MAX. CHANGE LAYER,ROW,COL MAX. CHANGE LAYER,ROW,COL MAX. CHANGE LAYER,ROW,COL MAX. CHANGE LAYER,ROW,COL
 ------------------------------------------------------------------------------------------------------------------------------------
   0.1291E-02 ( 13,  1, 59)  0.2314E-03 (  9,  1, 57)  0.7183E-04 (  5,  2, 62)  0.2921E-04 (  5,  2, 53)  0.1166E-04 (  4,  2, 53)
   0.8397E-05 (  3,  3, 31)  0.5355E-05 (  4,  3, 31)  0.3670E-05 (  3,  3, 29)  0.2291E-05 (  3,  3, 32)  0.1309E-05 (  3,  3, 29)
   0.6911E-06 (  3,  3, 30)  0.3811E-06 (  3,  3, 33)  0.2344E-06 (  4,  3, 31)  0.1334E-06 (  3,  3, 31)  0.7323E-07 (  3,  2, 29)
0WARNING: NUMERICAL OSCILLATION ENCOUNTERED
 ONE OR MORE CELL CONCENTRATIONS LESS THAN CRHOREF
 SMALLEST DENSITY =  0.100E+04
 AT CELL (I,J,K) = (   2,  61,  27)



                                          ================================================
                                                         FROM TIME =   38.000     TO    39.000    

 
 SOLVING FOR HEAD 
 FLOW MODEL IS TRANSIENT
 FLOW MODEL CONTAINS CONSTANT-HEAD CELLS


 MAXIMUM STEPSIZE DURING WHICH ANY PARTICLE CANNOT MOVE MORE THAN ONE CELL
 = 0.1700    (WHEN MIN. R.F.=1)  AT K=   3, I=   2, J=  30

 MAXIMUM STEPSIZE WHICH MEETS STABILITY CRITERION OF THE ADVECTION TERM
 (FOR PURE FINITE-DIFFERENCE OPTION, MIXELM=0) 
 = 0.1348    (WHEN MIN. R.F.=1)  AT K=   3, I=   2, J=  31


 TOTAL NUMBER OF POINT SOURCES/SINKS PRESENT IN THE FLOW MODEL =   240

 MAXIMUM STEPSIZE WHICH MEETS STABILITY CRITERION OF THE SINK & SOURCE TERM
 = 0.1000E+31(WHEN MIN. R.F.=1)  AT K=   0, I=   0, J=   0

 MAXIMUM STEPSIZE WHICH MEETS STABILITY CRITERION OF THE DISPERSION TERM
 = 0.7283E-02(WHEN MIN. R.F.=1)  AT K=   3, I=   2, J=  30


     1 CALLS TO GCG PACKAGE FOR TRANSPORT TIME STEP   1 IN FLOW TIME STEP  38 STRESS PERIOD   2
    16 TOTAL ITERATIONS

 NO OUTPUT CONTROL FOR STRESS PERIOD    2   TIME STEP  38
0WARNING: NUMERICAL OSCILLATION ENCOUNTERED
 ONE OR MORE CELL CONCENTRATIONS LESS THAN CRHOREF
 SMALLEST DENSITY =  0.100E+04
 AT CELL (I,J,K) = (   2,  61,  27)

 
 SOLVING FOR HEAD 
 FLOW MODEL IS TRANSIENT
 FLOW MODEL CONTAINS CONSTANT-HEAD CELLS


 MAXIMUM STEPSIZE DURING WHICH ANY PARTICLE CANNOT MOVE MORE THAN ONE CELL
 = 0.1700    (WHEN MIN. R.F.=1)  AT K=   3, I=   2, J=  30

 MAXIMUM STEPSIZE WHICH MEETS STABILITY CRITERION OF THE ADVECTION TERM
 (FOR PURE FINITE-DIFFERENCE OPTION, MIXELM=0) 
 = 0.1348    (WHEN MIN. R.F.=1)  AT K=   3, I=   2, J=  31


 TOTAL NUMBER OF POINT SOURCES/SINKS PRESENT IN THE FLOW MODEL =   240

 MAXIMUM STEPSIZE WHICH MEETS STABILITY CRITERION OF THE SINK & SOURCE TERM
 = 0.1000E+31(WHEN MIN. R.F.=1)  AT K=   0, I=   0, J=   0

 MAXIMUM STEPSIZE WHICH MEETS STABILITY CRITERION OF THE DISPERSION TERM
 = 0.7283E-02(WHEN MIN. R.F.=1)  AT K=   3, I=   2, J=  30
     1 CALLS TO GCG PACKAGE FOR TRANSPORT TIME STEP   2 IN FLOW TIME STEP  38 STRESS PERIOD   2
    16 TOTAL ITERATIONS
0WARNING: NUMERICAL OSCILLATION ENCOUNTERED
 ONE OR MORE CELL CONCENTRATIONS LESS THAN CRHOREF
 SMALLEST DENSITY =  0.100E+04
 AT CELL (I,J,K) = (   2,  62,  27)

 
 SOLVING FOR HEAD 
 FLOW MODEL IS TRANSIENT
 FLOW MODEL CONTAINS CONSTANT-HEAD CELLS


 MAXIMUM STEPSIZE DURING WHICH ANY PARTICLE CANNOT MOVE MORE THAN ONE CELL
 = 0.1700    (WHEN MIN. R.F.=1)  AT K=   3, I=   2, J=  30

 MAXIMUM STEPSIZE WHICH MEETS STABILITY CRITERION OF THE ADVECTION TERM
 (FOR PURE FINITE-DIFFERENCE OPTION, MIXELM=0) 
 = 0.1348    (WHEN MIN. R.F.=1)  AT K=   3, I=   2, J=  31


 TOTAL NUMBER OF POINT SOURCES/SINKS PRESENT IN THE FLOW MODEL =   240

 MAXIMUM STEPSIZE WHICH MEETS STABILITY CRITERION OF THE SINK & SOURCE TERM
 = 0.1000E+31(WHEN MIN. R.F.=1)  AT K=   0, I=   0, J=   0

 MAXIMUM STEPSIZE WHICH MEETS STABILITY CRITERION OF THE DISPERSION TERM
 = 0.7283E-02(WHEN MIN. R.F.=1)  AT K=   3, I=   2, J=  30
     1 CALLS TO GCG PACKAGE FOR TRANSPORT TIME STEP   3 IN FLOW TIME STEP  38 STRESS PERIOD   2
    16 TOTAL ITERATIONS
 
 SOLVING FOR HEAD 
 FLOW MODEL IS TRANSIENT
 FLOW MODEL CONTAINS CONSTANT-HEAD CELLS


 MAXIMUM STEPSIZE DURING WHICH ANY PARTICLE CANNOT MOVE MORE THAN ONE CELL
 = 0.1700    (WHEN MIN. R.F.=1)  AT K=   3, I=   2, J=  30

 MAXIMUM STEPSIZE WHICH MEETS STABILITY CRITERION OF THE ADVECTION TERM
 (FOR PURE FINITE-DIFFERENCE OPTION, MIXELM=0) 
 = 0.1348    (WHEN MIN. R.F.=1)  AT K=   3, I=   2, J=  31


 TOTAL NUMBER OF POINT SOURCES/SINKS PRESENT IN THE FLOW MODEL =   240

 MAXIMUM STEPSIZE WHICH MEETS STABILITY CRITERION OF THE SINK & SOURCE TERM
 = 0.1000E+31(WHEN MIN. R.F.=1)  AT K=   0, I=   0, J=   0

 MAXIMUM STEPSIZE WHICH MEETS STABILITY CRITERION OF THE DISPERSION TERM
 = 0.7283E-02(WHEN MIN. R.F.=1)  AT K=   3, I=   2, J=  30
     1 CALLS TO GCG PACKAGE FOR TRANSPORT TIME STEP   4 IN FLOW TIME STEP  38 STRESS PERIOD   2
    16 TOTAL ITERATIONS
 
 SOLVING FOR HEAD 
 FLOW MODEL IS TRANSIENT
 FLOW MODEL CONTAINS CONSTANT-HEAD CELLS


 MAXIMUM STEPSIZE DURING WHICH ANY PARTICLE CANNOT MOVE MORE THAN ONE CELL
 = 0.1700    (WHEN MIN. R.F.=1)  AT K=   3, I=   2, J=  30

 MAXIMUM STEPSIZE WHICH MEETS STABILITY CRITERION OF THE ADVECTION TERM
 (FOR PURE FINITE-DIFFERENCE OPTION, MIXELM=0) 
 = 0.1348    (WHEN MIN. R.F.=1)  AT K=   3, I=   2, J=  31


 TOTAL NUMBER OF POINT SOURCES/SINKS PRESENT IN THE FLOW MODEL =   240

 MAXIMUM STEPSIZE WHICH MEETS STABILITY CRITERION OF THE SINK & SOURCE TERM
 = 0.1000E+31(WHEN MIN. R.F.=1)  AT K=   0, I=   0, J=   0

 MAXIMUM STEPSIZE WHICH MEETS STABILITY CRITERION OF THE DISPERSION TERM
 = 0.7283E-02(WHEN MIN. R.F.=1)  AT K=   3, I=   2, J=  30
     1 CALLS TO GCG PACKAGE FOR TRANSPORT TIME STEP   5 IN FLOW TIME STEP  38 STRESS PERIOD   2
    16 TOTAL ITERATIONS
 
 SOLVING FOR HEAD 
 FLOW MODEL IS TRANSIENT
 FLOW MODEL CONTAINS CONSTANT-HEAD CELLS


 MAXIMUM STEPSIZE DURING WHICH ANY PARTICLE CANNOT MOVE MORE THAN ONE CELL
 = 0.1700    (WHEN MIN. R.F.=1)  AT K=   3, I=   2, J=  30

 MAXIMUM STEPSIZE WHICH MEETS STABILITY CRITERION OF THE ADVECTION TERM
 (FOR PURE FINITE-DIFFERENCE OPTION, MIXELM=0) 
 = 0.1348    (WHEN MIN. R.F.=1)  AT K=   3, I=   2, J=  31


 TOTAL NUMBER OF POINT SOURCES/SINKS PRESENT IN THE FLOW MODEL =   240

 MAXIMUM STEPSIZE WHICH MEETS STABILITY CRITERION OF THE SINK & SOURCE TERM
 = 0.1000E+31(WHEN MIN. R.F.=1)  AT K=   0, I=   0, J=   0

 MAXIMUM STEPSIZE WHICH MEETS STABILITY CRITERION OF THE DISPERSION TERM
 = 0.7283E-02(WHEN MIN. R.F.=1)  AT K=   3, I=   2, J=  30
     1 CALLS TO GCG PACKAGE FOR TRANSPORT TIME STEP   6 IN FLOW TIME STEP  38 STRESS PERIOD   2
    16 TOTAL ITERATIONS
 
 SOLVING FOR HEAD 
 FLOW MODEL IS TRANSIENT
 FLOW MODEL CONTAINS CONSTANT-HEAD CELLS


 MAXIMUM STEPSIZE DURING WHICH ANY PARTICLE CANNOT MOVE MORE THAN ONE CELL
 = 0.1700    (WHEN MIN. R.F.=1)  AT K=   3, I=   2, J=  30

 MAXIMUM STEPSIZE WHICH MEETS STABILITY CRITERION OF THE ADVECTION TERM
 (FOR PURE FINITE-DIFFERENCE OPTION, MIXELM=0) 
 = 0.1348    (WHEN MIN. R.F.=1)  AT K=   3, I=   2, J=  31


 TOTAL NUMBER OF POINT SOURCES/SINKS PRESENT IN THE FLOW MODEL =   240

 MAXIMUM STEPSIZE WHICH MEETS STABILITY CRITERION OF THE SINK & SOURCE TERM
 = 0.1000E+31(WHEN MIN. R.F.=1)  AT K=   0, I=   0, J=   0

 MAXIMUM STEPSIZE WHICH MEETS STABILITY CRITERION OF THE DISPERSION TERM
 = 0.7283E-02(WHEN MIN. R.F.=1)  AT K=   3, I=   2, J=  30
     1 CALLS TO GCG PACKAGE FOR TRANSPORT TIME STEP   7 IN FLOW TIME STEP  38 STRESS PERIOD   2
    16 TOTAL ITERATIONS
 
 SOLVING FOR HEAD 
 FLOW MODEL IS TRANSIENT
 FLOW MODEL CONTAINS CONSTANT-HEAD CELLS


 MAXIMUM STEPSIZE DURING WHICH ANY PARTICLE CANNOT MOVE MORE THAN ONE CELL
 = 0.1700    (WHEN MIN. R.F.=1)  AT K=   3, I=   2, J=  30

 MAXIMUM STEPSIZE WHICH MEETS STABILITY CRITERION OF THE ADVECTION TERM
 (FOR PURE FINITE-DIFFERENCE OPTION, MIXELM=0) 
 = 0.1348    (WHEN MIN. R.F.=1)  AT K=   3, I=   2, J=  31


 TOTAL NUMBER OF POINT SOURCES/SINKS PRESENT IN THE FLOW MODEL =   240

 MAXIMUM STEPSIZE WHICH MEETS STABILITY CRITERION OF THE SINK & SOURCE TERM
 = 0.1000E+31(WHEN MIN. R.F.=1)  AT K=   0, I=   0, J=   0

 MAXIMUM STEPSIZE WHICH MEETS STABILITY CRITERION OF THE DISPERSION TERM
 = 0.7283E-02(WHEN MIN. R.F.=1)  AT K=   3, I=   2, J=  30
     1 CALLS TO GCG PACKAGE FOR TRANSPORT TIME STEP   8 IN FLOW TIME STEP  38 STRESS PERIOD   2
    15 TOTAL ITERATIONS
  MAXIMUM CONCENTRATION CHANGES FOR EACH ITERATION:
  MAX. CHANGE LAYER,ROW,COL MAX. CHANGE LAYER,ROW,COL MAX. CHANGE LAYER,ROW,COL MAX. CHANGE LAYER,ROW,COL MAX. CHANGE LAYER,ROW,COL
 ------------------------------------------------------------------------------------------------------------------------------------
   0.1272E-02 ( 13,  1, 59)  0.2243E-03 (  9,  1, 57)  0.6876E-04 (  5,  2, 62)  0.2777E-04 (  5,  2, 53)  0.1109E-04 (  4,  2, 53)
   0.7965E-05 (  3,  3, 31)  0.5092E-05 (  4,  3, 31)  0.3485E-05 (  3,  3, 29)  0.2179E-05 (  3,  3, 32)  0.1243E-05 (  3,  3, 29)
   0.6574E-06 (  3,  3, 30)  0.3616E-06 (  3,  3, 33)  0.2228E-06 (  4,  3, 31)  0.1266E-06 (  3,  3, 31)  0.6974E-07 (  3,  2, 29)


                                          ================================================
                                                         FROM TIME =   39.000     TO    40.000    

 
 SOLVING FOR HEAD 
 FLOW MODEL IS TRANSIENT
 FLOW MODEL CONTAINS CONSTANT-HEAD CELLS


 MAXIMUM STEPSIZE DURING WHICH ANY PARTICLE CANNOT MOVE MORE THAN ONE CELL
 = 0.1700    (WHEN MIN. R.F.=1)  AT K=   3, I=   2, J=  30

 MAXIMUM STEPSIZE WHICH MEETS STABILITY CRITERION OF THE ADVECTION TERM
 (FOR PURE FINITE-DIFFERENCE OPTION, MIXELM=0) 
 = 0.1348    (WHEN MIN. R.F.=1)  AT K=   3, I=   2, J=  31


 TOTAL NUMBER OF POINT SOURCES/SINKS PRESENT IN THE FLOW MODEL =   240

 MAXIMUM STEPSIZE WHICH MEETS STABILITY CRITERION OF THE SINK & SOURCE TERM
 = 0.1000E+31(WHEN MIN. R.F.=1)  AT K=   0, I=   0, J=   0

 MAXIMUM STEPSIZE WHICH MEETS STABILITY CRITERION OF THE DISPERSION TERM
 = 0.7283E-02(WHEN MIN. R.F.=1)  AT K=   3, I=   2, J=  30


     1 CALLS TO GCG PACKAGE FOR TRANSPORT TIME STEP   1 IN FLOW TIME STEP  39 STRESS PERIOD   2
    16 TOTAL ITERATIONS

 NO OUTPUT CONTROL FOR STRESS PERIOD    2   TIME STEP  39
 
 SOLVING FOR HEAD 
 FLOW MODEL IS TRANSIENT
 FLOW MODEL CONTAINS CONSTANT-HEAD CELLS


 MAXIMUM STEPSIZE DURING WHICH ANY PARTICLE CANNOT MOVE MORE THAN ONE CELL
 = 0.1700    (WHEN MIN. R.F.=1)  AT K=   3, I=   2, J=  30

 MAXIMUM STEPSIZE WHICH MEETS STABILITY CRITERION OF THE ADVECTION TERM
 (FOR PURE FINITE-DIFFERENCE OPTION, MIXELM=0) 
 = 0.1348    (WHEN MIN. R.F.=1)  AT K=   3, I=   2, J=  31


 TOTAL NUMBER OF POINT SOURCES/SINKS PRESENT IN THE FLOW MODEL =   240

 MAXIMUM STEPSIZE WHICH MEETS STABILITY CRITERION OF THE SINK & SOURCE TERM
 = 0.1000E+31(WHEN MIN. R.F.=1)  AT K=   0, I=   0, J=   0

 MAXIMUM STEPSIZE WHICH MEETS STABILITY CRITERION OF THE DISPERSION TERM
 = 0.7283E-02(WHEN MIN. R.F.=1)  AT K=   3, I=   2, J=  30
     1 CALLS TO GCG PACKAGE FOR TRANSPORT TIME STEP   2 IN FLOW TIME STEP  39 STRESS PERIOD   2
    16 TOTAL ITERATIONS
 
 SOLVING FOR HEAD 
 FLOW MODEL IS TRANSIENT
 FLOW MODEL CONTAINS CONSTANT-HEAD CELLS


 MAXIMUM STEPSIZE DURING WHICH ANY PARTICLE CANNOT MOVE MORE THAN ONE CELL
 = 0.1700    (WHEN MIN. R.F.=1)  AT K=   3, I=   2, J=  30

 MAXIMUM STEPSIZE WHICH MEETS STABILITY CRITERION OF THE ADVECTION TERM
 (FOR PURE FINITE-DIFFERENCE OPTION, MIXELM=0) 
 = 0.1348    (WHEN MIN. R.F.=1)  AT K=   3, I=   2, J=  31


 TOTAL NUMBER OF POINT SOURCES/SINKS PRESENT IN THE FLOW MODEL =   240

 MAXIMUM STEPSIZE WHICH MEETS STABILITY CRITERION OF THE SINK & SOURCE TERM
 = 0.1000E+31(WHEN MIN. R.F.=1)  AT K=   0, I=   0, J=   0

 MAXIMUM STEPSIZE WHICH MEETS STABILITY CRITERION OF THE DISPERSION TERM
 = 0.7283E-02(WHEN MIN. R.F.=1)  AT K=   3, I=   2, J=  30
     1 CALLS TO GCG PACKAGE FOR TRANSPORT TIME STEP   3 IN FLOW TIME STEP  39 STRESS PERIOD   2
    16 TOTAL ITERATIONS
 
 SOLVING FOR HEAD 
 FLOW MODEL IS TRANSIENT
 FLOW MODEL CONTAINS CONSTANT-HEAD CELLS


 MAXIMUM STEPSIZE DURING WHICH ANY PARTICLE CANNOT MOVE MORE THAN ONE CELL
 = 0.1700    (WHEN MIN. R.F.=1)  AT K=   3, I=   2, J=  30

 MAXIMUM STEPSIZE WHICH MEETS STABILITY CRITERION OF THE ADVECTION TERM
 (FOR PURE FINITE-DIFFERENCE OPTION, MIXELM=0) 
 = 0.1348    (WHEN MIN. R.F.=1)  AT K=   3, I=   2, J=  31


 TOTAL NUMBER OF POINT SOURCES/SINKS PRESENT IN THE FLOW MODEL =   240

 MAXIMUM STEPSIZE WHICH MEETS STABILITY CRITERION OF THE SINK & SOURCE TERM
 = 0.1000E+31(WHEN MIN. R.F.=1)  AT K=   0, I=   0, J=   0

 MAXIMUM STEPSIZE WHICH MEETS STABILITY CRITERION OF THE DISPERSION TERM
 = 0.7282E-02(WHEN MIN. R.F.=1)  AT K=   3, I=   2, J=  30
     1 CALLS TO GCG PACKAGE FOR TRANSPORT TIME STEP   4 IN FLOW TIME STEP  39 STRESS PERIOD   2
    16 TOTAL ITERATIONS
 
 SOLVING FOR HEAD 
 FLOW MODEL IS TRANSIENT
 FLOW MODEL CONTAINS CONSTANT-HEAD CELLS


 MAXIMUM STEPSIZE DURING WHICH ANY PARTICLE CANNOT MOVE MORE THAN ONE CELL
 = 0.1700    (WHEN MIN. R.F.=1)  AT K=   3, I=   2, J=  30

 MAXIMUM STEPSIZE WHICH MEETS STABILITY CRITERION OF THE ADVECTION TERM
 (FOR PURE FINITE-DIFFERENCE OPTION, MIXELM=0) 
 = 0.1348    (WHEN MIN. R.F.=1)  AT K=   3, I=   2, J=  31


 TOTAL NUMBER OF POINT SOURCES/SINKS PRESENT IN THE FLOW MODEL =   240

 MAXIMUM STEPSIZE WHICH MEETS STABILITY CRITERION OF THE SINK & SOURCE TERM
 = 0.1000E+31(WHEN MIN. R.F.=1)  AT K=   0, I=   0, J=   0

 MAXIMUM STEPSIZE WHICH MEETS STABILITY CRITERION OF THE DISPERSION TERM
 = 0.7282E-02(WHEN MIN. R.F.=1)  AT K=   3, I=   2, J=  30
     1 CALLS TO GCG PACKAGE FOR TRANSPORT TIME STEP   5 IN FLOW TIME STEP  39 STRESS PERIOD   2
    16 TOTAL ITERATIONS
 
 SOLVING FOR HEAD 
 FLOW MODEL IS TRANSIENT
 FLOW MODEL CONTAINS CONSTANT-HEAD CELLS


 MAXIMUM STEPSIZE DURING WHICH ANY PARTICLE CANNOT MOVE MORE THAN ONE CELL
 = 0.1700    (WHEN MIN. R.F.=1)  AT K=   3, I=   2, J=  30

 MAXIMUM STEPSIZE WHICH MEETS STABILITY CRITERION OF THE ADVECTION TERM
 (FOR PURE FINITE-DIFFERENCE OPTION, MIXELM=0) 
 = 0.1348    (WHEN MIN. R.F.=1)  AT K=   3, I=   2, J=  31


 TOTAL NUMBER OF POINT SOURCES/SINKS PRESENT IN THE FLOW MODEL =   240

 MAXIMUM STEPSIZE WHICH MEETS STABILITY CRITERION OF THE SINK & SOURCE TERM
 = 0.1000E+31(WHEN MIN. R.F.=1)  AT K=   0, I=   0, J=   0

 MAXIMUM STEPSIZE WHICH MEETS STABILITY CRITERION OF THE DISPERSION TERM
 = 0.7282E-02(WHEN MIN. R.F.=1)  AT K=   3, I=   2, J=  30
     1 CALLS TO GCG PACKAGE FOR TRANSPORT TIME STEP   6 IN FLOW TIME STEP  39 STRESS PERIOD   2
    16 TOTAL ITERATIONS
 
 SOLVING FOR HEAD 
 FLOW MODEL IS TRANSIENT
 FLOW MODEL CONTAINS CONSTANT-HEAD CELLS


 MAXIMUM STEPSIZE DURING WHICH ANY PARTICLE CANNOT MOVE MORE THAN ONE CELL
 = 0.1699    (WHEN MIN. R.F.=1)  AT K=   3, I=   2, J=  30

 MAXIMUM STEPSIZE WHICH MEETS STABILITY CRITERION OF THE ADVECTION TERM
 (FOR PURE FINITE-DIFFERENCE OPTION, MIXELM=0) 
 = 0.1348    (WHEN MIN. R.F.=1)  AT K=   3, I=   2, J=  31


 TOTAL NUMBER OF POINT SOURCES/SINKS PRESENT IN THE FLOW MODEL =   240

 MAXIMUM STEPSIZE WHICH MEETS STABILITY CRITERION OF THE SINK & SOURCE TERM
 = 0.1000E+31(WHEN MIN. R.F.=1)  AT K=   0, I=   0, J=   0

 MAXIMUM STEPSIZE WHICH MEETS STABILITY CRITERION OF THE DISPERSION TERM
 = 0.7282E-02(WHEN MIN. R.F.=1)  AT K=   3, I=   2, J=  30
     1 CALLS TO GCG PACKAGE FOR TRANSPORT TIME STEP   7 IN FLOW TIME STEP  39 STRESS PERIOD   2
    16 TOTAL ITERATIONS
 
 SOLVING FOR HEAD 
 FLOW MODEL IS TRANSIENT
 FLOW MODEL CONTAINS CONSTANT-HEAD CELLS


 MAXIMUM STEPSIZE DURING WHICH ANY PARTICLE CANNOT MOVE MORE THAN ONE CELL
 = 0.1699    (WHEN MIN. R.F.=1)  AT K=   3, I=   2, J=  30

 MAXIMUM STEPSIZE WHICH MEETS STABILITY CRITERION OF THE ADVECTION TERM
 (FOR PURE FINITE-DIFFERENCE OPTION, MIXELM=0) 
 = 0.1348    (WHEN MIN. R.F.=1)  AT K=   3, I=   2, J=  31


 TOTAL NUMBER OF POINT SOURCES/SINKS PRESENT IN THE FLOW MODEL =   240

 MAXIMUM STEPSIZE WHICH MEETS STABILITY CRITERION OF THE SINK & SOURCE TERM
 = 0.1000E+31(WHEN MIN. R.F.=1)  AT K=   0, I=   0, J=   0

 MAXIMUM STEPSIZE WHICH MEETS STABILITY CRITERION OF THE DISPERSION TERM
 = 0.7282E-02(WHEN MIN. R.F.=1)  AT K=   3, I=   2, J=  30
     1 CALLS TO GCG PACKAGE FOR TRANSPORT TIME STEP   8 IN FLOW TIME STEP  39 STRESS PERIOD   2
    15 TOTAL ITERATIONS
  MAXIMUM CONCENTRATION CHANGES FOR EACH ITERATION:
  MAX. CHANGE LAYER,ROW,COL MAX. CHANGE LAYER,ROW,COL MAX. CHANGE LAYER,ROW,COL MAX. CHANGE LAYER,ROW,COL MAX. CHANGE LAYER,ROW,COL
 ------------------------------------------------------------------------------------------------------------------------------------
   0.1252E-02 ( 13,  1, 59)  0.2174E-03 (  9,  1, 57)  0.6588E-04 (  5,  2, 62)  0.2644E-04 (  5,  2, 53)  0.1056E-04 (  4,  2, 53)
   0.7556E-05 (  3,  3, 31)  0.4846E-05 (  4,  3, 31)  0.3310E-05 (  3,  3, 29)  0.2075E-05 (  3,  3, 32)  0.1181E-05 (  3,  3, 29)
   0.6261E-06 (  3,  3, 30)  0.3433E-06 (  3,  3, 33)  0.2121E-06 (  4,  3, 31)  0.1203E-06 (  3,  3, 31)  0.6648E-07 (  3,  2, 29)


                                          ================================================
                                                         FROM TIME =   40.000     TO    41.000    

 
 SOLVING FOR HEAD 
 FLOW MODEL IS TRANSIENT
 FLOW MODEL CONTAINS CONSTANT-HEAD CELLS


 MAXIMUM STEPSIZE DURING WHICH ANY PARTICLE CANNOT MOVE MORE THAN ONE CELL
 = 0.1699    (WHEN MIN. R.F.=1)  AT K=   3, I=   2, J=  30

 MAXIMUM STEPSIZE WHICH MEETS STABILITY CRITERION OF THE ADVECTION TERM
 (FOR PURE FINITE-DIFFERENCE OPTION, MIXELM=0) 
 = 0.1348    (WHEN MIN. R.F.=1)  AT K=   3, I=   2, J=  31


 TOTAL NUMBER OF POINT SOURCES/SINKS PRESENT IN THE FLOW MODEL =   240

 MAXIMUM STEPSIZE WHICH MEETS STABILITY CRITERION OF THE SINK & SOURCE TERM
 = 0.1000E+31(WHEN MIN. R.F.=1)  AT K=   0, I=   0, J=   0

 MAXIMUM STEPSIZE WHICH MEETS STABILITY CRITERION OF THE DISPERSION TERM
 = 0.7282E-02(WHEN MIN. R.F.=1)  AT K=   3, I=   2, J=  30


     1 CALLS TO GCG PACKAGE FOR TRANSPORT TIME STEP   1 IN FLOW TIME STEP  40 STRESS PERIOD   2
    16 TOTAL ITERATIONS

 NO OUTPUT CONTROL FOR STRESS PERIOD    2   TIME STEP  40
 
 SOLVING FOR HEAD 
 FLOW MODEL IS TRANSIENT
 FLOW MODEL CONTAINS CONSTANT-HEAD CELLS


 MAXIMUM STEPSIZE DURING WHICH ANY PARTICLE CANNOT MOVE MORE THAN ONE CELL
 = 0.1699    (WHEN MIN. R.F.=1)  AT K=   3, I=   2, J=  30

 MAXIMUM STEPSIZE WHICH MEETS STABILITY CRITERION OF THE ADVECTION TERM
 (FOR PURE FINITE-DIFFERENCE OPTION, MIXELM=0) 
 = 0.1348    (WHEN MIN. R.F.=1)  AT K=   3, I=   2, J=  31


 TOTAL NUMBER OF POINT SOURCES/SINKS PRESENT IN THE FLOW MODEL =   240

 MAXIMUM STEPSIZE WHICH MEETS STABILITY CRITERION OF THE SINK & SOURCE TERM
 = 0.1000E+31(WHEN MIN. R.F.=1)  AT K=   0, I=   0, J=   0

 MAXIMUM STEPSIZE WHICH MEETS STABILITY CRITERION OF THE DISPERSION TERM
 = 0.7282E-02(WHEN MIN. R.F.=1)  AT K=   3, I=   2, J=  30
     1 CALLS TO GCG PACKAGE FOR TRANSPORT TIME STEP   2 IN FLOW TIME STEP  40 STRESS PERIOD   2
    16 TOTAL ITERATIONS
 
 SOLVING FOR HEAD 
 FLOW MODEL IS TRANSIENT
 FLOW MODEL CONTAINS CONSTANT-HEAD CELLS


 MAXIMUM STEPSIZE DURING WHICH ANY PARTICLE CANNOT MOVE MORE THAN ONE CELL
 = 0.1699    (WHEN MIN. R.F.=1)  AT K=   3, I=   2, J=  30

 MAXIMUM STEPSIZE WHICH MEETS STABILITY CRITERION OF THE ADVECTION TERM
 (FOR PURE FINITE-DIFFERENCE OPTION, MIXELM=0) 
 = 0.1348    (WHEN MIN. R.F.=1)  AT K=   3, I=   2, J=  31


 TOTAL NUMBER OF POINT SOURCES/SINKS PRESENT IN THE FLOW MODEL =   240

 MAXIMUM STEPSIZE WHICH MEETS STABILITY CRITERION OF THE SINK & SOURCE TERM
 = 0.1000E+31(WHEN MIN. R.F.=1)  AT K=   0, I=   0, J=   0

 MAXIMUM STEPSIZE WHICH MEETS STABILITY CRITERION OF THE DISPERSION TERM
 = 0.7282E-02(WHEN MIN. R.F.=1)  AT K=   3, I=   2, J=  30
     1 CALLS TO GCG PACKAGE FOR TRANSPORT TIME STEP   3 IN FLOW TIME STEP  40 STRESS PERIOD   2
    16 TOTAL ITERATIONS
 
 SOLVING FOR HEAD 
 FLOW MODEL IS TRANSIENT
 FLOW MODEL CONTAINS CONSTANT-HEAD CELLS


 MAXIMUM STEPSIZE DURING WHICH ANY PARTICLE CANNOT MOVE MORE THAN ONE CELL
 = 0.1699    (WHEN MIN. R.F.=1)  AT K=   3, I=   2, J=  30

 MAXIMUM STEPSIZE WHICH MEETS STABILITY CRITERION OF THE ADVECTION TERM
 (FOR PURE FINITE-DIFFERENCE OPTION, MIXELM=0) 
 = 0.1348    (WHEN MIN. R.F.=1)  AT K=   3, I=   2, J=  31


 TOTAL NUMBER OF POINT SOURCES/SINKS PRESENT IN THE FLOW MODEL =   240

 MAXIMUM STEPSIZE WHICH MEETS STABILITY CRITERION OF THE SINK & SOURCE TERM
 = 0.1000E+31(WHEN MIN. R.F.=1)  AT K=   0, I=   0, J=   0

 MAXIMUM STEPSIZE WHICH MEETS STABILITY CRITERION OF THE DISPERSION TERM
 = 0.7282E-02(WHEN MIN. R.F.=1)  AT K=   3, I=   2, J=  30
     1 CALLS TO GCG PACKAGE FOR TRANSPORT TIME STEP   4 IN FLOW TIME STEP  40 STRESS PERIOD   2
    16 TOTAL ITERATIONS
 
 SOLVING FOR HEAD 
 FLOW MODEL IS TRANSIENT
 FLOW MODEL CONTAINS CONSTANT-HEAD CELLS


 MAXIMUM STEPSIZE DURING WHICH ANY PARTICLE CANNOT MOVE MORE THAN ONE CELL
 = 0.1699    (WHEN MIN. R.F.=1)  AT K=   3, I=   2, J=  30

 MAXIMUM STEPSIZE WHICH MEETS STABILITY CRITERION OF THE ADVECTION TERM
 (FOR PURE FINITE-DIFFERENCE OPTION, MIXELM=0) 
 = 0.1348    (WHEN MIN. R.F.=1)  AT K=   3, I=   2, J=  31


 TOTAL NUMBER OF POINT SOURCES/SINKS PRESENT IN THE FLOW MODEL =   240

 MAXIMUM STEPSIZE WHICH MEETS STABILITY CRITERION OF THE SINK & SOURCE TERM
 = 0.1000E+31(WHEN MIN. R.F.=1)  AT K=   0, I=   0, J=   0

 MAXIMUM STEPSIZE WHICH MEETS STABILITY CRITERION OF THE DISPERSION TERM
 = 0.7282E-02(WHEN MIN. R.F.=1)  AT K=   3, I=   2, J=  30
     1 CALLS TO GCG PACKAGE FOR TRANSPORT TIME STEP   5 IN FLOW TIME STEP  40 STRESS PERIOD   2
    16 TOTAL ITERATIONS
 
 SOLVING FOR HEAD 
 FLOW MODEL IS TRANSIENT
 FLOW MODEL CONTAINS CONSTANT-HEAD CELLS


 MAXIMUM STEPSIZE DURING WHICH ANY PARTICLE CANNOT MOVE MORE THAN ONE CELL
 = 0.1699    (WHEN MIN. R.F.=1)  AT K=   3, I=   2, J=  30

 MAXIMUM STEPSIZE WHICH MEETS STABILITY CRITERION OF THE ADVECTION TERM
 (FOR PURE FINITE-DIFFERENCE OPTION, MIXELM=0) 
 = 0.1348    (WHEN MIN. R.F.=1)  AT K=   3, I=   2, J=  31


 TOTAL NUMBER OF POINT SOURCES/SINKS PRESENT IN THE FLOW MODEL =   240

 MAXIMUM STEPSIZE WHICH MEETS STABILITY CRITERION OF THE SINK & SOURCE TERM
 = 0.1000E+31(WHEN MIN. R.F.=1)  AT K=   0, I=   0, J=   0

 MAXIMUM STEPSIZE WHICH MEETS STABILITY CRITERION OF THE DISPERSION TERM
 = 0.7282E-02(WHEN MIN. R.F.=1)  AT K=   3, I=   2, J=  30
     1 CALLS TO GCG PACKAGE FOR TRANSPORT TIME STEP   6 IN FLOW TIME STEP  40 STRESS PERIOD   2
    16 TOTAL ITERATIONS
 
 SOLVING FOR HEAD 
 FLOW MODEL IS TRANSIENT
 FLOW MODEL CONTAINS CONSTANT-HEAD CELLS


 MAXIMUM STEPSIZE DURING WHICH ANY PARTICLE CANNOT MOVE MORE THAN ONE CELL
 = 0.1699    (WHEN MIN. R.F.=1)  AT K=   3, I=   2, J=  30

 MAXIMUM STEPSIZE WHICH MEETS STABILITY CRITERION OF THE ADVECTION TERM
 (FOR PURE FINITE-DIFFERENCE OPTION, MIXELM=0) 
 = 0.1348    (WHEN MIN. R.F.=1)  AT K=   3, I=   2, J=  31


 TOTAL NUMBER OF POINT SOURCES/SINKS PRESENT IN THE FLOW MODEL =   240

 MAXIMUM STEPSIZE WHICH MEETS STABILITY CRITERION OF THE SINK & SOURCE TERM
 = 0.1000E+31(WHEN MIN. R.F.=1)  AT K=   0, I=   0, J=   0

 MAXIMUM STEPSIZE WHICH MEETS STABILITY CRITERION OF THE DISPERSION TERM
 = 0.7282E-02(WHEN MIN. R.F.=1)  AT K=   3, I=   2, J=  30
     1 CALLS TO GCG PACKAGE FOR TRANSPORT TIME STEP   7 IN FLOW TIME STEP  40 STRESS PERIOD   2
    16 TOTAL ITERATIONS
 
 SOLVING FOR HEAD 
 FLOW MODEL IS TRANSIENT
 FLOW MODEL CONTAINS CONSTANT-HEAD CELLS


 MAXIMUM STEPSIZE DURING WHICH ANY PARTICLE CANNOT MOVE MORE THAN ONE CELL
 = 0.1699    (WHEN MIN. R.F.=1)  AT K=   3, I=   2, J=  30

 MAXIMUM STEPSIZE WHICH MEETS STABILITY CRITERION OF THE ADVECTION TERM
 (FOR PURE FINITE-DIFFERENCE OPTION, MIXELM=0) 
 = 0.1348    (WHEN MIN. R.F.=1)  AT K=   3, I=   2, J=  31


 TOTAL NUMBER OF POINT SOURCES/SINKS PRESENT IN THE FLOW MODEL =   240

 MAXIMUM STEPSIZE WHICH MEETS STABILITY CRITERION OF THE SINK & SOURCE TERM
 = 0.1000E+31(WHEN MIN. R.F.=1)  AT K=   0, I=   0, J=   0

 MAXIMUM STEPSIZE WHICH MEETS STABILITY CRITERION OF THE DISPERSION TERM
 = 0.7282E-02(WHEN MIN. R.F.=1)  AT K=   3, I=   2, J=  30
     1 CALLS TO GCG PACKAGE FOR TRANSPORT TIME STEP   8 IN FLOW TIME STEP  40 STRESS PERIOD   2
    15 TOTAL ITERATIONS
  MAXIMUM CONCENTRATION CHANGES FOR EACH ITERATION:
  MAX. CHANGE LAYER,ROW,COL MAX. CHANGE LAYER,ROW,COL MAX. CHANGE LAYER,ROW,COL MAX. CHANGE LAYER,ROW,COL MAX. CHANGE LAYER,ROW,COL
 ------------------------------------------------------------------------------------------------------------------------------------
   0.1233E-02 ( 13,  1, 59)  0.2109E-03 (  9,  1, 57)  0.6317E-04 (  5,  2, 62)  0.2519E-04 (  5,  2, 53)  0.1008E-04 (  4,  2, 53)
   0.7166E-05 (  3,  3, 31)  0.4612E-05 (  4,  3, 31)  0.3145E-05 (  3,  3, 29)  0.1976E-05 (  3,  3, 32)  0.1123E-05 (  3,  3, 29)
   0.5970E-06 (  3,  3, 30)  0.3261E-06 (  3,  3, 33)  0.2020E-06 (  4,  3, 31)  0.1143E-06 (  3,  3, 31)  0.6340E-07 (  3,  2, 29)


                                          ================================================
                                                         FROM TIME =   41.000     TO    42.000    

 
 SOLVING FOR HEAD 
 FLOW MODEL IS TRANSIENT
 FLOW MODEL CONTAINS CONSTANT-HEAD CELLS


 MAXIMUM STEPSIZE DURING WHICH ANY PARTICLE CANNOT MOVE MORE THAN ONE CELL
 = 0.1699    (WHEN MIN. R.F.=1)  AT K=   3, I=   2, J=  30

 MAXIMUM STEPSIZE WHICH MEETS STABILITY CRITERION OF THE ADVECTION TERM
 (FOR PURE FINITE-DIFFERENCE OPTION, MIXELM=0) 
 = 0.1348    (WHEN MIN. R.F.=1)  AT K=   3, I=   2, J=  31


 TOTAL NUMBER OF POINT SOURCES/SINKS PRESENT IN THE FLOW MODEL =   240

 MAXIMUM STEPSIZE WHICH MEETS STABILITY CRITERION OF THE SINK & SOURCE TERM
 = 0.1000E+31(WHEN MIN. R.F.=1)  AT K=   0, I=   0, J=   0

 MAXIMUM STEPSIZE WHICH MEETS STABILITY CRITERION OF THE DISPERSION TERM
 = 0.7282E-02(WHEN MIN. R.F.=1)  AT K=   3, I=   2, J=  30


     1 CALLS TO GCG PACKAGE FOR TRANSPORT TIME STEP   1 IN FLOW TIME STEP  41 STRESS PERIOD   2
    16 TOTAL ITERATIONS

 NO OUTPUT CONTROL FOR STRESS PERIOD    2   TIME STEP  41
 
 SOLVING FOR HEAD 
 FLOW MODEL IS TRANSIENT
 FLOW MODEL CONTAINS CONSTANT-HEAD CELLS


 MAXIMUM STEPSIZE DURING WHICH ANY PARTICLE CANNOT MOVE MORE THAN ONE CELL
 = 0.1699    (WHEN MIN. R.F.=1)  AT K=   3, I=   2, J=  30

 MAXIMUM STEPSIZE WHICH MEETS STABILITY CRITERION OF THE ADVECTION TERM
 (FOR PURE FINITE-DIFFERENCE OPTION, MIXELM=0) 
 = 0.1347    (WHEN MIN. R.F.=1)  AT K=   3, I=   2, J=  31


 TOTAL NUMBER OF POINT SOURCES/SINKS PRESENT IN THE FLOW MODEL =   240

 MAXIMUM STEPSIZE WHICH MEETS STABILITY CRITERION OF THE SINK & SOURCE TERM
 = 0.1000E+31(WHEN MIN. R.F.=1)  AT K=   0, I=   0, J=   0

 MAXIMUM STEPSIZE WHICH MEETS STABILITY CRITERION OF THE DISPERSION TERM
 = 0.7282E-02(WHEN MIN. R.F.=1)  AT K=   3, I=   2, J=  30
     1 CALLS TO GCG PACKAGE FOR TRANSPORT TIME STEP   2 IN FLOW TIME STEP  41 STRESS PERIOD   2
    16 TOTAL ITERATIONS
 
 SOLVING FOR HEAD 
 FLOW MODEL IS TRANSIENT
 FLOW MODEL CONTAINS CONSTANT-HEAD CELLS


 MAXIMUM STEPSIZE DURING WHICH ANY PARTICLE CANNOT MOVE MORE THAN ONE CELL
 = 0.1699    (WHEN MIN. R.F.=1)  AT K=   3, I=   2, J=  30

 MAXIMUM STEPSIZE WHICH MEETS STABILITY CRITERION OF THE ADVECTION TERM
 (FOR PURE FINITE-DIFFERENCE OPTION, MIXELM=0) 
 = 0.1347    (WHEN MIN. R.F.=1)  AT K=   3, I=   2, J=  31


 TOTAL NUMBER OF POINT SOURCES/SINKS PRESENT IN THE FLOW MODEL =   240

 MAXIMUM STEPSIZE WHICH MEETS STABILITY CRITERION OF THE SINK & SOURCE TERM
 = 0.1000E+31(WHEN MIN. R.F.=1)  AT K=   0, I=   0, J=   0

 MAXIMUM STEPSIZE WHICH MEETS STABILITY CRITERION OF THE DISPERSION TERM
 = 0.7282E-02(WHEN MIN. R.F.=1)  AT K=   3, I=   2, J=  30
     1 CALLS TO GCG PACKAGE FOR TRANSPORT TIME STEP   3 IN FLOW TIME STEP  41 STRESS PERIOD   2
    16 TOTAL ITERATIONS
 
 SOLVING FOR HEAD 
 FLOW MODEL IS TRANSIENT
 FLOW MODEL CONTAINS CONSTANT-HEAD CELLS


 MAXIMUM STEPSIZE DURING WHICH ANY PARTICLE CANNOT MOVE MORE THAN ONE CELL
 = 0.1699    (WHEN MIN. R.F.=1)  AT K=   3, I=   2, J=  30

 MAXIMUM STEPSIZE WHICH MEETS STABILITY CRITERION OF THE ADVECTION TERM
 (FOR PURE FINITE-DIFFERENCE OPTION, MIXELM=0) 
 = 0.1347    (WHEN MIN. R.F.=1)  AT K=   3, I=   2, J=  31


 TOTAL NUMBER OF POINT SOURCES/SINKS PRESENT IN THE FLOW MODEL =   240

 MAXIMUM STEPSIZE WHICH MEETS STABILITY CRITERION OF THE SINK & SOURCE TERM
 = 0.1000E+31(WHEN MIN. R.F.=1)  AT K=   0, I=   0, J=   0

 MAXIMUM STEPSIZE WHICH MEETS STABILITY CRITERION OF THE DISPERSION TERM
 = 0.7282E-02(WHEN MIN. R.F.=1)  AT K=   3, I=   2, J=  30
     1 CALLS TO GCG PACKAGE FOR TRANSPORT TIME STEP   4 IN FLOW TIME STEP  41 STRESS PERIOD   2
    16 TOTAL ITERATIONS
 
 SOLVING FOR HEAD 
 FLOW MODEL IS TRANSIENT
 FLOW MODEL CONTAINS CONSTANT-HEAD CELLS


 MAXIMUM STEPSIZE DURING WHICH ANY PARTICLE CANNOT MOVE MORE THAN ONE CELL
 = 0.1699    (WHEN MIN. R.F.=1)  AT K=   3, I=   2, J=  30

 MAXIMUM STEPSIZE WHICH MEETS STABILITY CRITERION OF THE ADVECTION TERM
 (FOR PURE FINITE-DIFFERENCE OPTION, MIXELM=0) 
 = 0.1347    (WHEN MIN. R.F.=1)  AT K=   3, I=   2, J=  31


 TOTAL NUMBER OF POINT SOURCES/SINKS PRESENT IN THE FLOW MODEL =   240

 MAXIMUM STEPSIZE WHICH MEETS STABILITY CRITERION OF THE SINK & SOURCE TERM
 = 0.1000E+31(WHEN MIN. R.F.=1)  AT K=   0, I=   0, J=   0

 MAXIMUM STEPSIZE WHICH MEETS STABILITY CRITERION OF THE DISPERSION TERM
 = 0.7282E-02(WHEN MIN. R.F.=1)  AT K=   3, I=   2, J=  30
     1 CALLS TO GCG PACKAGE FOR TRANSPORT TIME STEP   5 IN FLOW TIME STEP  41 STRESS PERIOD   2
    16 TOTAL ITERATIONS
 
 SOLVING FOR HEAD 
 FLOW MODEL IS TRANSIENT
 FLOW MODEL CONTAINS CONSTANT-HEAD CELLS


 MAXIMUM STEPSIZE DURING WHICH ANY PARTICLE CANNOT MOVE MORE THAN ONE CELL
 = 0.1699    (WHEN MIN. R.F.=1)  AT K=   3, I=   2, J=  30

 MAXIMUM STEPSIZE WHICH MEETS STABILITY CRITERION OF THE ADVECTION TERM
 (FOR PURE FINITE-DIFFERENCE OPTION, MIXELM=0) 
 = 0.1347    (WHEN MIN. R.F.=1)  AT K=   3, I=   2, J=  31


 TOTAL NUMBER OF POINT SOURCES/SINKS PRESENT IN THE FLOW MODEL =   240

 MAXIMUM STEPSIZE WHICH MEETS STABILITY CRITERION OF THE SINK & SOURCE TERM
 = 0.1000E+31(WHEN MIN. R.F.=1)  AT K=   0, I=   0, J=   0

 MAXIMUM STEPSIZE WHICH MEETS STABILITY CRITERION OF THE DISPERSION TERM
 = 0.7282E-02(WHEN MIN. R.F.=1)  AT K=   3, I=   2, J=  30
     1 CALLS TO GCG PACKAGE FOR TRANSPORT TIME STEP   6 IN FLOW TIME STEP  41 STRESS PERIOD   2
    16 TOTAL ITERATIONS
 
 SOLVING FOR HEAD 
 FLOW MODEL IS TRANSIENT
 FLOW MODEL CONTAINS CONSTANT-HEAD CELLS


 MAXIMUM STEPSIZE DURING WHICH ANY PARTICLE CANNOT MOVE MORE THAN ONE CELL
 = 0.1699    (WHEN MIN. R.F.=1)  AT K=   3, I=   2, J=  30

 MAXIMUM STEPSIZE WHICH MEETS STABILITY CRITERION OF THE ADVECTION TERM
 (FOR PURE FINITE-DIFFERENCE OPTION, MIXELM=0) 
 = 0.1347    (WHEN MIN. R.F.=1)  AT K=   3, I=   2, J=  31


 TOTAL NUMBER OF POINT SOURCES/SINKS PRESENT IN THE FLOW MODEL =   240

 MAXIMUM STEPSIZE WHICH MEETS STABILITY CRITERION OF THE SINK & SOURCE TERM
 = 0.1000E+31(WHEN MIN. R.F.=1)  AT K=   0, I=   0, J=   0

 MAXIMUM STEPSIZE WHICH MEETS STABILITY CRITERION OF THE DISPERSION TERM
 = 0.7282E-02(WHEN MIN. R.F.=1)  AT K=   3, I=   2, J=  30
     1 CALLS TO GCG PACKAGE FOR TRANSPORT TIME STEP   7 IN FLOW TIME STEP  41 STRESS PERIOD   2
    16 TOTAL ITERATIONS
 
 SOLVING FOR HEAD 
 FLOW MODEL IS TRANSIENT
 FLOW MODEL CONTAINS CONSTANT-HEAD CELLS


 MAXIMUM STEPSIZE DURING WHICH ANY PARTICLE CANNOT MOVE MORE THAN ONE CELL
 = 0.1699    (WHEN MIN. R.F.=1)  AT K=   3, I=   2, J=  30

 MAXIMUM STEPSIZE WHICH MEETS STABILITY CRITERION OF THE ADVECTION TERM
 (FOR PURE FINITE-DIFFERENCE OPTION, MIXELM=0) 
 = 0.1347    (WHEN MIN. R.F.=1)  AT K=   3, I=   2, J=  31


 TOTAL NUMBER OF POINT SOURCES/SINKS PRESENT IN THE FLOW MODEL =   240

 MAXIMUM STEPSIZE WHICH MEETS STABILITY CRITERION OF THE SINK & SOURCE TERM
 = 0.1000E+31(WHEN MIN. R.F.=1)  AT K=   0, I=   0, J=   0

 MAXIMUM STEPSIZE WHICH MEETS STABILITY CRITERION OF THE DISPERSION TERM
 = 0.7282E-02(WHEN MIN. R.F.=1)  AT K=   3, I=   2, J=  30
     1 CALLS TO GCG PACKAGE FOR TRANSPORT TIME STEP   8 IN FLOW TIME STEP  41 STRESS PERIOD   2
    15 TOTAL ITERATIONS
  MAXIMUM CONCENTRATION CHANGES FOR EACH ITERATION:
  MAX. CHANGE LAYER,ROW,COL MAX. CHANGE LAYER,ROW,COL MAX. CHANGE LAYER,ROW,COL MAX. CHANGE LAYER,ROW,COL MAX. CHANGE LAYER,ROW,COL
 ------------------------------------------------------------------------------------------------------------------------------------
   0.1214E-02 ( 13,  1, 59)  0.2045E-03 (  9,  1, 57)  0.6062E-04 (  5,  2, 62)  0.2402E-04 (  5,  2, 53)  0.9625E-05 (  4,  2, 53)
   0.6791E-05 (  3,  3, 31)  0.4388E-05 (  4,  3, 31)  0.2987E-05 (  3,  3, 29)  0.1882E-05 (  3,  3, 32)  0.1067E-05 (  3,  3, 29)
   0.5696E-06 (  3,  3, 30)  0.3096E-06 (  3,  3, 33)  0.1925E-06 (  4,  3, 31)  0.1087E-06 (  3,  3, 31)  0.6049E-07 (  3,  2, 29)


                                          ================================================
                                                         FROM TIME =   42.000     TO    43.000    

 
 SOLVING FOR HEAD 
 FLOW MODEL IS TRANSIENT
 FLOW MODEL CONTAINS CONSTANT-HEAD CELLS


 MAXIMUM STEPSIZE DURING WHICH ANY PARTICLE CANNOT MOVE MORE THAN ONE CELL
 = 0.1699    (WHEN MIN. R.F.=1)  AT K=   3, I=   2, J=  30

 MAXIMUM STEPSIZE WHICH MEETS STABILITY CRITERION OF THE ADVECTION TERM
 (FOR PURE FINITE-DIFFERENCE OPTION, MIXELM=0) 
 = 0.1347    (WHEN MIN. R.F.=1)  AT K=   3, I=   2, J=  31


 TOTAL NUMBER OF POINT SOURCES/SINKS PRESENT IN THE FLOW MODEL =   240

 MAXIMUM STEPSIZE WHICH MEETS STABILITY CRITERION OF THE SINK & SOURCE TERM
 = 0.1000E+31(WHEN MIN. R.F.=1)  AT K=   0, I=   0, J=   0

 MAXIMUM STEPSIZE WHICH MEETS STABILITY CRITERION OF THE DISPERSION TERM
 = 0.7282E-02(WHEN MIN. R.F.=1)  AT K=   3, I=   2, J=  30


     1 CALLS TO GCG PACKAGE FOR TRANSPORT TIME STEP   1 IN FLOW TIME STEP  42 STRESS PERIOD   2
    16 TOTAL ITERATIONS

 NO OUTPUT CONTROL FOR STRESS PERIOD    2   TIME STEP  42
 
 SOLVING FOR HEAD 
 FLOW MODEL IS TRANSIENT
 FLOW MODEL CONTAINS CONSTANT-HEAD CELLS


 MAXIMUM STEPSIZE DURING WHICH ANY PARTICLE CANNOT MOVE MORE THAN ONE CELL
 = 0.1699    (WHEN MIN. R.F.=1)  AT K=   3, I=   2, J=  30

 MAXIMUM STEPSIZE WHICH MEETS STABILITY CRITERION OF THE ADVECTION TERM
 (FOR PURE FINITE-DIFFERENCE OPTION, MIXELM=0) 
 = 0.1347    (WHEN MIN. R.F.=1)  AT K=   3, I=   2, J=  31


 TOTAL NUMBER OF POINT SOURCES/SINKS PRESENT IN THE FLOW MODEL =   240

 MAXIMUM STEPSIZE WHICH MEETS STABILITY CRITERION OF THE SINK & SOURCE TERM
 = 0.1000E+31(WHEN MIN. R.F.=1)  AT K=   0, I=   0, J=   0

 MAXIMUM STEPSIZE WHICH MEETS STABILITY CRITERION OF THE DISPERSION TERM
 = 0.7282E-02(WHEN MIN. R.F.=1)  AT K=   3, I=   2, J=  30
     1 CALLS TO GCG PACKAGE FOR TRANSPORT TIME STEP   2 IN FLOW TIME STEP  42 STRESS PERIOD   2
    16 TOTAL ITERATIONS
 
 SOLVING FOR HEAD 
 FLOW MODEL IS TRANSIENT
 FLOW MODEL CONTAINS CONSTANT-HEAD CELLS


 MAXIMUM STEPSIZE DURING WHICH ANY PARTICLE CANNOT MOVE MORE THAN ONE CELL
 = 0.1699    (WHEN MIN. R.F.=1)  AT K=   3, I=   2, J=  30

 MAXIMUM STEPSIZE WHICH MEETS STABILITY CRITERION OF THE ADVECTION TERM
 (FOR PURE FINITE-DIFFERENCE OPTION, MIXELM=0) 
 = 0.1347    (WHEN MIN. R.F.=1)  AT K=   3, I=   2, J=  31


 TOTAL NUMBER OF POINT SOURCES/SINKS PRESENT IN THE FLOW MODEL =   240

 MAXIMUM STEPSIZE WHICH MEETS STABILITY CRITERION OF THE SINK & SOURCE TERM
 = 0.1000E+31(WHEN MIN. R.F.=1)  AT K=   0, I=   0, J=   0

 MAXIMUM STEPSIZE WHICH MEETS STABILITY CRITERION OF THE DISPERSION TERM
 = 0.7282E-02(WHEN MIN. R.F.=1)  AT K=   3, I=   2, J=  30
     1 CALLS TO GCG PACKAGE FOR TRANSPORT TIME STEP   3 IN FLOW TIME STEP  42 STRESS PERIOD   2
    16 TOTAL ITERATIONS
 
 SOLVING FOR HEAD 
 FLOW MODEL IS TRANSIENT
 FLOW MODEL CONTAINS CONSTANT-HEAD CELLS


 MAXIMUM STEPSIZE DURING WHICH ANY PARTICLE CANNOT MOVE MORE THAN ONE CELL
 = 0.1699    (WHEN MIN. R.F.=1)  AT K=   3, I=   2, J=  30

 MAXIMUM STEPSIZE WHICH MEETS STABILITY CRITERION OF THE ADVECTION TERM
 (FOR PURE FINITE-DIFFERENCE OPTION, MIXELM=0) 
 = 0.1347    (WHEN MIN. R.F.=1)  AT K=   3, I=   2, J=  31


 TOTAL NUMBER OF POINT SOURCES/SINKS PRESENT IN THE FLOW MODEL =   240

 MAXIMUM STEPSIZE WHICH MEETS STABILITY CRITERION OF THE SINK & SOURCE TERM
 = 0.1000E+31(WHEN MIN. R.F.=1)  AT K=   0, I=   0, J=   0

 MAXIMUM STEPSIZE WHICH MEETS STABILITY CRITERION OF THE DISPERSION TERM
 = 0.7282E-02(WHEN MIN. R.F.=1)  AT K=   3, I=   2, J=  30
     1 CALLS TO GCG PACKAGE FOR TRANSPORT TIME STEP   4 IN FLOW TIME STEP  42 STRESS PERIOD   2
    16 TOTAL ITERATIONS
 
 SOLVING FOR HEAD 
 FLOW MODEL IS TRANSIENT
 FLOW MODEL CONTAINS CONSTANT-HEAD CELLS


 MAXIMUM STEPSIZE DURING WHICH ANY PARTICLE CANNOT MOVE MORE THAN ONE CELL
 = 0.1699    (WHEN MIN. R.F.=1)  AT K=   3, I=   2, J=  30

 MAXIMUM STEPSIZE WHICH MEETS STABILITY CRITERION OF THE ADVECTION TERM
 (FOR PURE FINITE-DIFFERENCE OPTION, MIXELM=0) 
 = 0.1347    (WHEN MIN. R.F.=1)  AT K=   3, I=   2, J=  31


 TOTAL NUMBER OF POINT SOURCES/SINKS PRESENT IN THE FLOW MODEL =   240

 MAXIMUM STEPSIZE WHICH MEETS STABILITY CRITERION OF THE SINK & SOURCE TERM
 = 0.1000E+31(WHEN MIN. R.F.=1)  AT K=   0, I=   0, J=   0

 MAXIMUM STEPSIZE WHICH MEETS STABILITY CRITERION OF THE DISPERSION TERM
 = 0.7282E-02(WHEN MIN. R.F.=1)  AT K=   3, I=   2, J=  30
     1 CALLS TO GCG PACKAGE FOR TRANSPORT TIME STEP   5 IN FLOW TIME STEP  42 STRESS PERIOD   2
    16 TOTAL ITERATIONS
 
 SOLVING FOR HEAD 
 FLOW MODEL IS TRANSIENT
 FLOW MODEL CONTAINS CONSTANT-HEAD CELLS


 MAXIMUM STEPSIZE DURING WHICH ANY PARTICLE CANNOT MOVE MORE THAN ONE CELL
 = 0.1699    (WHEN MIN. R.F.=1)  AT K=   3, I=   2, J=  30

 MAXIMUM STEPSIZE WHICH MEETS STABILITY CRITERION OF THE ADVECTION TERM
 (FOR PURE FINITE-DIFFERENCE OPTION, MIXELM=0) 
 = 0.1347    (WHEN MIN. R.F.=1)  AT K=   3, I=   2, J=  31


 TOTAL NUMBER OF POINT SOURCES/SINKS PRESENT IN THE FLOW MODEL =   240

 MAXIMUM STEPSIZE WHICH MEETS STABILITY CRITERION OF THE SINK & SOURCE TERM
 = 0.1000E+31(WHEN MIN. R.F.=1)  AT K=   0, I=   0, J=   0

 MAXIMUM STEPSIZE WHICH MEETS STABILITY CRITERION OF THE DISPERSION TERM
 = 0.7281E-02(WHEN MIN. R.F.=1)  AT K=   3, I=   2, J=  30
     1 CALLS TO GCG PACKAGE FOR TRANSPORT TIME STEP   6 IN FLOW TIME STEP  42 STRESS PERIOD   2
    16 TOTAL ITERATIONS
 
 SOLVING FOR HEAD 
 FLOW MODEL IS TRANSIENT
 FLOW MODEL CONTAINS CONSTANT-HEAD CELLS


 MAXIMUM STEPSIZE DURING WHICH ANY PARTICLE CANNOT MOVE MORE THAN ONE CELL
 = 0.1699    (WHEN MIN. R.F.=1)  AT K=   3, I=   2, J=  30

 MAXIMUM STEPSIZE WHICH MEETS STABILITY CRITERION OF THE ADVECTION TERM
 (FOR PURE FINITE-DIFFERENCE OPTION, MIXELM=0) 
 = 0.1347    (WHEN MIN. R.F.=1)  AT K=   3, I=   2, J=  31


 TOTAL NUMBER OF POINT SOURCES/SINKS PRESENT IN THE FLOW MODEL =   240

 MAXIMUM STEPSIZE WHICH MEETS STABILITY CRITERION OF THE SINK & SOURCE TERM
 = 0.1000E+31(WHEN MIN. R.F.=1)  AT K=   0, I=   0, J=   0

 MAXIMUM STEPSIZE WHICH MEETS STABILITY CRITERION OF THE DISPERSION TERM
 = 0.7281E-02(WHEN MIN. R.F.=1)  AT K=   3, I=   2, J=  30
     1 CALLS TO GCG PACKAGE FOR TRANSPORT TIME STEP   7 IN FLOW TIME STEP  42 STRESS PERIOD   2
    16 TOTAL ITERATIONS
 
 SOLVING FOR HEAD 
 FLOW MODEL IS TRANSIENT
 FLOW MODEL CONTAINS CONSTANT-HEAD CELLS


 MAXIMUM STEPSIZE DURING WHICH ANY PARTICLE CANNOT MOVE MORE THAN ONE CELL
 = 0.1699    (WHEN MIN. R.F.=1)  AT K=   3, I=   2, J=  30

 MAXIMUM STEPSIZE WHICH MEETS STABILITY CRITERION OF THE ADVECTION TERM
 (FOR PURE FINITE-DIFFERENCE OPTION, MIXELM=0) 
 = 0.1347    (WHEN MIN. R.F.=1)  AT K=   3, I=   2, J=  31


 TOTAL NUMBER OF POINT SOURCES/SINKS PRESENT IN THE FLOW MODEL =   240

 MAXIMUM STEPSIZE WHICH MEETS STABILITY CRITERION OF THE SINK & SOURCE TERM
 = 0.1000E+31(WHEN MIN. R.F.=1)  AT K=   0, I=   0, J=   0

 MAXIMUM STEPSIZE WHICH MEETS STABILITY CRITERION OF THE DISPERSION TERM
 = 0.7281E-02(WHEN MIN. R.F.=1)  AT K=   3, I=   2, J=  30
     1 CALLS TO GCG PACKAGE FOR TRANSPORT TIME STEP   8 IN FLOW TIME STEP  42 STRESS PERIOD   2
    15 TOTAL ITERATIONS
  MAXIMUM CONCENTRATION CHANGES FOR EACH ITERATION:
  MAX. CHANGE LAYER,ROW,COL MAX. CHANGE LAYER,ROW,COL MAX. CHANGE LAYER,ROW,COL MAX. CHANGE LAYER,ROW,COL MAX. CHANGE LAYER,ROW,COL
 ------------------------------------------------------------------------------------------------------------------------------------
   0.1196E-02 ( 13,  1, 59)  0.1984E-03 (  9,  1, 57)  0.5820E-04 (  5,  2, 62)  0.2292E-04 (  5,  2, 53)  0.9203E-05 (  4,  2, 53)
   0.6428E-05 (  3,  3, 31)  0.4173E-05 (  4,  3, 31)  0.2836E-05 (  3,  3, 29)  0.1791E-05 (  3,  3, 32)  0.1015E-05 (  3,  3, 29)
   0.5437E-06 (  3,  3, 30)  0.2940E-06 (  3,  3, 33)  0.1834E-06 (  4,  3, 31)  0.1034E-06 (  3,  3, 31)  0.5773E-07 (  3,  2, 29)


                                          ================================================
                                                         FROM TIME =   43.000     TO    44.000    

 
 SOLVING FOR HEAD 
 FLOW MODEL IS TRANSIENT
 FLOW MODEL CONTAINS CONSTANT-HEAD CELLS


 MAXIMUM STEPSIZE DURING WHICH ANY PARTICLE CANNOT MOVE MORE THAN ONE CELL
 = 0.1699    (WHEN MIN. R.F.=1)  AT K=   3, I=   2, J=  30

 MAXIMUM STEPSIZE WHICH MEETS STABILITY CRITERION OF THE ADVECTION TERM
 (FOR PURE FINITE-DIFFERENCE OPTION, MIXELM=0) 
 = 0.1347    (WHEN MIN. R.F.=1)  AT K=   3, I=   2, J=  31


 TOTAL NUMBER OF POINT SOURCES/SINKS PRESENT IN THE FLOW MODEL =   240

 MAXIMUM STEPSIZE WHICH MEETS STABILITY CRITERION OF THE SINK & SOURCE TERM
 = 0.1000E+31(WHEN MIN. R.F.=1)  AT K=   0, I=   0, J=   0

 MAXIMUM STEPSIZE WHICH MEETS STABILITY CRITERION OF THE DISPERSION TERM
 = 0.7281E-02(WHEN MIN. R.F.=1)  AT K=   3, I=   2, J=  30


     1 CALLS TO GCG PACKAGE FOR TRANSPORT TIME STEP   1 IN FLOW TIME STEP  43 STRESS PERIOD   2
    16 TOTAL ITERATIONS

 NO OUTPUT CONTROL FOR STRESS PERIOD    2   TIME STEP  43
 
 SOLVING FOR HEAD 
 FLOW MODEL IS TRANSIENT
 FLOW MODEL CONTAINS CONSTANT-HEAD CELLS


 MAXIMUM STEPSIZE DURING WHICH ANY PARTICLE CANNOT MOVE MORE THAN ONE CELL
 = 0.1699    (WHEN MIN. R.F.=1)  AT K=   3, I=   2, J=  30

 MAXIMUM STEPSIZE WHICH MEETS STABILITY CRITERION OF THE ADVECTION TERM
 (FOR PURE FINITE-DIFFERENCE OPTION, MIXELM=0) 
 = 0.1347    (WHEN MIN. R.F.=1)  AT K=   3, I=   2, J=  31


 TOTAL NUMBER OF POINT SOURCES/SINKS PRESENT IN THE FLOW MODEL =   240

 MAXIMUM STEPSIZE WHICH MEETS STABILITY CRITERION OF THE SINK & SOURCE TERM
 = 0.1000E+31(WHEN MIN. R.F.=1)  AT K=   0, I=   0, J=   0

 MAXIMUM STEPSIZE WHICH MEETS STABILITY CRITERION OF THE DISPERSION TERM
 = 0.7281E-02(WHEN MIN. R.F.=1)  AT K=   3, I=   2, J=  30
     1 CALLS TO GCG PACKAGE FOR TRANSPORT TIME STEP   2 IN FLOW TIME STEP  43 STRESS PERIOD   2
    16 TOTAL ITERATIONS
 
 SOLVING FOR HEAD 
 FLOW MODEL IS TRANSIENT
 FLOW MODEL CONTAINS CONSTANT-HEAD CELLS


 MAXIMUM STEPSIZE DURING WHICH ANY PARTICLE CANNOT MOVE MORE THAN ONE CELL
 = 0.1699    (WHEN MIN. R.F.=1)  AT K=   3, I=   2, J=  30

 MAXIMUM STEPSIZE WHICH MEETS STABILITY CRITERION OF THE ADVECTION TERM
 (FOR PURE FINITE-DIFFERENCE OPTION, MIXELM=0) 
 = 0.1347    (WHEN MIN. R.F.=1)  AT K=   3, I=   2, J=  31


 TOTAL NUMBER OF POINT SOURCES/SINKS PRESENT IN THE FLOW MODEL =   240

 MAXIMUM STEPSIZE WHICH MEETS STABILITY CRITERION OF THE SINK & SOURCE TERM
 = 0.1000E+31(WHEN MIN. R.F.=1)  AT K=   0, I=   0, J=   0

 MAXIMUM STEPSIZE WHICH MEETS STABILITY CRITERION OF THE DISPERSION TERM
 = 0.7281E-02(WHEN MIN. R.F.=1)  AT K=   3, I=   2, J=  30
     1 CALLS TO GCG PACKAGE FOR TRANSPORT TIME STEP   3 IN FLOW TIME STEP  43 STRESS PERIOD   2
    16 TOTAL ITERATIONS
 
 SOLVING FOR HEAD 
 FLOW MODEL IS TRANSIENT
 FLOW MODEL CONTAINS CONSTANT-HEAD CELLS


 MAXIMUM STEPSIZE DURING WHICH ANY PARTICLE CANNOT MOVE MORE THAN ONE CELL
 = 0.1699    (WHEN MIN. R.F.=1)  AT K=   3, I=   2, J=  30

 MAXIMUM STEPSIZE WHICH MEETS STABILITY CRITERION OF THE ADVECTION TERM
 (FOR PURE FINITE-DIFFERENCE OPTION, MIXELM=0) 
 = 0.1347    (WHEN MIN. R.F.=1)  AT K=   3, I=   2, J=  31


 TOTAL NUMBER OF POINT SOURCES/SINKS PRESENT IN THE FLOW MODEL =   240

 MAXIMUM STEPSIZE WHICH MEETS STABILITY CRITERION OF THE SINK & SOURCE TERM
 = 0.1000E+31(WHEN MIN. R.F.=1)  AT K=   0, I=   0, J=   0

 MAXIMUM STEPSIZE WHICH MEETS STABILITY CRITERION OF THE DISPERSION TERM
 = 0.7281E-02(WHEN MIN. R.F.=1)  AT K=   3, I=   2, J=  30
     1 CALLS TO GCG PACKAGE FOR TRANSPORT TIME STEP   4 IN FLOW TIME STEP  43 STRESS PERIOD   2
    16 TOTAL ITERATIONS
 
 SOLVING FOR HEAD 
 FLOW MODEL IS TRANSIENT
 FLOW MODEL CONTAINS CONSTANT-HEAD CELLS


 MAXIMUM STEPSIZE DURING WHICH ANY PARTICLE CANNOT MOVE MORE THAN ONE CELL
 = 0.1699    (WHEN MIN. R.F.=1)  AT K=   3, I=   2, J=  30

 MAXIMUM STEPSIZE WHICH MEETS STABILITY CRITERION OF THE ADVECTION TERM
 (FOR PURE FINITE-DIFFERENCE OPTION, MIXELM=0) 
 = 0.1347    (WHEN MIN. R.F.=1)  AT K=   3, I=   2, J=  31


 TOTAL NUMBER OF POINT SOURCES/SINKS PRESENT IN THE FLOW MODEL =   240

 MAXIMUM STEPSIZE WHICH MEETS STABILITY CRITERION OF THE SINK & SOURCE TERM
 = 0.1000E+31(WHEN MIN. R.F.=1)  AT K=   0, I=   0, J=   0

 MAXIMUM STEPSIZE WHICH MEETS STABILITY CRITERION OF THE DISPERSION TERM
 = 0.7281E-02(WHEN MIN. R.F.=1)  AT K=   3, I=   2, J=  30
     1 CALLS TO GCG PACKAGE FOR TRANSPORT TIME STEP   5 IN FLOW TIME STEP  43 STRESS PERIOD   2
    16 TOTAL ITERATIONS
 
 SOLVING FOR HEAD 
 FLOW MODEL IS TRANSIENT
 FLOW MODEL CONTAINS CONSTANT-HEAD CELLS


 MAXIMUM STEPSIZE DURING WHICH ANY PARTICLE CANNOT MOVE MORE THAN ONE CELL
 = 0.1699    (WHEN MIN. R.F.=1)  AT K=   3, I=   2, J=  30

 MAXIMUM STEPSIZE WHICH MEETS STABILITY CRITERION OF THE ADVECTION TERM
 (FOR PURE FINITE-DIFFERENCE OPTION, MIXELM=0) 
 = 0.1347    (WHEN MIN. R.F.=1)  AT K=   3, I=   2, J=  31


 TOTAL NUMBER OF POINT SOURCES/SINKS PRESENT IN THE FLOW MODEL =   240

 MAXIMUM STEPSIZE WHICH MEETS STABILITY CRITERION OF THE SINK & SOURCE TERM
 = 0.1000E+31(WHEN MIN. R.F.=1)  AT K=   0, I=   0, J=   0

 MAXIMUM STEPSIZE WHICH MEETS STABILITY CRITERION OF THE DISPERSION TERM
 = 0.7281E-02(WHEN MIN. R.F.=1)  AT K=   3, I=   2, J=  30
     1 CALLS TO GCG PACKAGE FOR TRANSPORT TIME STEP   6 IN FLOW TIME STEP  43 STRESS PERIOD   2
    16 TOTAL ITERATIONS
 
 SOLVING FOR HEAD 
 FLOW MODEL IS TRANSIENT
 FLOW MODEL CONTAINS CONSTANT-HEAD CELLS


 MAXIMUM STEPSIZE DURING WHICH ANY PARTICLE CANNOT MOVE MORE THAN ONE CELL
 = 0.1699    (WHEN MIN. R.F.=1)  AT K=   3, I=   2, J=  30

 MAXIMUM STEPSIZE WHICH MEETS STABILITY CRITERION OF THE ADVECTION TERM
 (FOR PURE FINITE-DIFFERENCE OPTION, MIXELM=0) 
 = 0.1347    (WHEN MIN. R.F.=1)  AT K=   3, I=   2, J=  31


 TOTAL NUMBER OF POINT SOURCES/SINKS PRESENT IN THE FLOW MODEL =   240

 MAXIMUM STEPSIZE WHICH MEETS STABILITY CRITERION OF THE SINK & SOURCE TERM
 = 0.1000E+31(WHEN MIN. R.F.=1)  AT K=   0, I=   0, J=   0

 MAXIMUM STEPSIZE WHICH MEETS STABILITY CRITERION OF THE DISPERSION TERM
 = 0.7281E-02(WHEN MIN. R.F.=1)  AT K=   3, I=   2, J=  30
     1 CALLS TO GCG PACKAGE FOR TRANSPORT TIME STEP   7 IN FLOW TIME STEP  43 STRESS PERIOD   2
    16 TOTAL ITERATIONS
 
 SOLVING FOR HEAD 
 FLOW MODEL IS TRANSIENT
 FLOW MODEL CONTAINS CONSTANT-HEAD CELLS


 MAXIMUM STEPSIZE DURING WHICH ANY PARTICLE CANNOT MOVE MORE THAN ONE CELL
 = 0.1699    (WHEN MIN. R.F.=1)  AT K=   3, I=   2, J=  30

 MAXIMUM STEPSIZE WHICH MEETS STABILITY CRITERION OF THE ADVECTION TERM
 (FOR PURE FINITE-DIFFERENCE OPTION, MIXELM=0) 
 = 0.1347    (WHEN MIN. R.F.=1)  AT K=   3, I=   2, J=  31


 TOTAL NUMBER OF POINT SOURCES/SINKS PRESENT IN THE FLOW MODEL =   240

 MAXIMUM STEPSIZE WHICH MEETS STABILITY CRITERION OF THE SINK & SOURCE TERM
 = 0.1000E+31(WHEN MIN. R.F.=1)  AT K=   0, I=   0, J=   0

 MAXIMUM STEPSIZE WHICH MEETS STABILITY CRITERION OF THE DISPERSION TERM
 = 0.7281E-02(WHEN MIN. R.F.=1)  AT K=   3, I=   2, J=  30
     1 CALLS TO GCG PACKAGE FOR TRANSPORT TIME STEP   8 IN FLOW TIME STEP  43 STRESS PERIOD   2
    14 TOTAL ITERATIONS
  MAXIMUM CONCENTRATION CHANGES FOR EACH ITERATION:
  MAX. CHANGE LAYER,ROW,COL MAX. CHANGE LAYER,ROW,COL MAX. CHANGE LAYER,ROW,COL MAX. CHANGE LAYER,ROW,COL MAX. CHANGE LAYER,ROW,COL
 ------------------------------------------------------------------------------------------------------------------------------------
   0.1178E-02 ( 13,  1, 59)  0.1925E-03 (  9,  1, 57)  0.5592E-04 (  5,  2, 62)  0.2188E-04 (  5,  2, 53)  0.8807E-05 (  4,  2, 53)
   0.6079E-05 (  3,  3, 31)  0.3966E-05 (  4,  3, 31)  0.2691E-05 (  3,  3, 29)  0.1705E-05 (  3,  3, 32)  0.9645E-06 (  3,  3, 29)
   0.5190E-06 (  3,  3, 30)  0.2791E-06 (  4,  3, 30)  0.1748E-06 (  4,  3, 31)  0.9830E-07 (  3,  3, 31)


                                          ================================================
                                                         FROM TIME =   44.000     TO    45.000    

 
 SOLVING FOR HEAD 
 FLOW MODEL IS TRANSIENT
 FLOW MODEL CONTAINS CONSTANT-HEAD CELLS


 MAXIMUM STEPSIZE DURING WHICH ANY PARTICLE CANNOT MOVE MORE THAN ONE CELL
 = 0.1699    (WHEN MIN. R.F.=1)  AT K=   3, I=   2, J=  30

 MAXIMUM STEPSIZE WHICH MEETS STABILITY CRITERION OF THE ADVECTION TERM
 (FOR PURE FINITE-DIFFERENCE OPTION, MIXELM=0) 
 = 0.1347    (WHEN MIN. R.F.=1)  AT K=   3, I=   2, J=  31


 TOTAL NUMBER OF POINT SOURCES/SINKS PRESENT IN THE FLOW MODEL =   240

 MAXIMUM STEPSIZE WHICH MEETS STABILITY CRITERION OF THE SINK & SOURCE TERM
 = 0.1000E+31(WHEN MIN. R.F.=1)  AT K=   0, I=   0, J=   0

 MAXIMUM STEPSIZE WHICH MEETS STABILITY CRITERION OF THE DISPERSION TERM
 = 0.7281E-02(WHEN MIN. R.F.=1)  AT K=   3, I=   2, J=  30


     1 CALLS TO GCG PACKAGE FOR TRANSPORT TIME STEP   1 IN FLOW TIME STEP  44 STRESS PERIOD   2
    16 TOTAL ITERATIONS

 NO OUTPUT CONTROL FOR STRESS PERIOD    2   TIME STEP  44
 
 SOLVING FOR HEAD 
 FLOW MODEL IS TRANSIENT
 FLOW MODEL CONTAINS CONSTANT-HEAD CELLS


 MAXIMUM STEPSIZE DURING WHICH ANY PARTICLE CANNOT MOVE MORE THAN ONE CELL
 = 0.1699    (WHEN MIN. R.F.=1)  AT K=   3, I=   2, J=  30

 MAXIMUM STEPSIZE WHICH MEETS STABILITY CRITERION OF THE ADVECTION TERM
 (FOR PURE FINITE-DIFFERENCE OPTION, MIXELM=0) 
 = 0.1347    (WHEN MIN. R.F.=1)  AT K=   3, I=   2, J=  31


 TOTAL NUMBER OF POINT SOURCES/SINKS PRESENT IN THE FLOW MODEL =   240

 MAXIMUM STEPSIZE WHICH MEETS STABILITY CRITERION OF THE SINK & SOURCE TERM
 = 0.1000E+31(WHEN MIN. R.F.=1)  AT K=   0, I=   0, J=   0

 MAXIMUM STEPSIZE WHICH MEETS STABILITY CRITERION OF THE DISPERSION TERM
 = 0.7281E-02(WHEN MIN. R.F.=1)  AT K=   3, I=   2, J=  30
     1 CALLS TO GCG PACKAGE FOR TRANSPORT TIME STEP   2 IN FLOW TIME STEP  44 STRESS PERIOD   2
    16 TOTAL ITERATIONS
 
 SOLVING FOR HEAD 
 FLOW MODEL IS TRANSIENT
 FLOW MODEL CONTAINS CONSTANT-HEAD CELLS


 MAXIMUM STEPSIZE DURING WHICH ANY PARTICLE CANNOT MOVE MORE THAN ONE CELL
 = 0.1699    (WHEN MIN. R.F.=1)  AT K=   3, I=   2, J=  30

 MAXIMUM STEPSIZE WHICH MEETS STABILITY CRITERION OF THE ADVECTION TERM
 (FOR PURE FINITE-DIFFERENCE OPTION, MIXELM=0) 
 = 0.1347    (WHEN MIN. R.F.=1)  AT K=   3, I=   2, J=  31


 TOTAL NUMBER OF POINT SOURCES/SINKS PRESENT IN THE FLOW MODEL =   240

 MAXIMUM STEPSIZE WHICH MEETS STABILITY CRITERION OF THE SINK & SOURCE TERM
 = 0.1000E+31(WHEN MIN. R.F.=1)  AT K=   0, I=   0, J=   0

 MAXIMUM STEPSIZE WHICH MEETS STABILITY CRITERION OF THE DISPERSION TERM
 = 0.7281E-02(WHEN MIN. R.F.=1)  AT K=   3, I=   2, J=  30
     1 CALLS TO GCG PACKAGE FOR TRANSPORT TIME STEP   3 IN FLOW TIME STEP  44 STRESS PERIOD   2
    16 TOTAL ITERATIONS
 
 SOLVING FOR HEAD 
 FLOW MODEL IS TRANSIENT
 FLOW MODEL CONTAINS CONSTANT-HEAD CELLS


 MAXIMUM STEPSIZE DURING WHICH ANY PARTICLE CANNOT MOVE MORE THAN ONE CELL
 = 0.1699    (WHEN MIN. R.F.=1)  AT K=   3, I=   2, J=  30

 MAXIMUM STEPSIZE WHICH MEETS STABILITY CRITERION OF THE ADVECTION TERM
 (FOR PURE FINITE-DIFFERENCE OPTION, MIXELM=0) 
 = 0.1347    (WHEN MIN. R.F.=1)  AT K=   3, I=   2, J=  31


 TOTAL NUMBER OF POINT SOURCES/SINKS PRESENT IN THE FLOW MODEL =   240

 MAXIMUM STEPSIZE WHICH MEETS STABILITY CRITERION OF THE SINK & SOURCE TERM
 = 0.1000E+31(WHEN MIN. R.F.=1)  AT K=   0, I=   0, J=   0

 MAXIMUM STEPSIZE WHICH MEETS STABILITY CRITERION OF THE DISPERSION TERM
 = 0.7281E-02(WHEN MIN. R.F.=1)  AT K=   3, I=   2, J=  30
     1 CALLS TO GCG PACKAGE FOR TRANSPORT TIME STEP   4 IN FLOW TIME STEP  44 STRESS PERIOD   2
    16 TOTAL ITERATIONS
 
 SOLVING FOR HEAD 
 FLOW MODEL IS TRANSIENT
 FLOW MODEL CONTAINS CONSTANT-HEAD CELLS


 MAXIMUM STEPSIZE DURING WHICH ANY PARTICLE CANNOT MOVE MORE THAN ONE CELL
 = 0.1699    (WHEN MIN. R.F.=1)  AT K=   3, I=   2, J=  30

 MAXIMUM STEPSIZE WHICH MEETS STABILITY CRITERION OF THE ADVECTION TERM
 (FOR PURE FINITE-DIFFERENCE OPTION, MIXELM=0) 
 = 0.1347    (WHEN MIN. R.F.=1)  AT K=   3, I=   2, J=  31


 TOTAL NUMBER OF POINT SOURCES/SINKS PRESENT IN THE FLOW MODEL =   240

 MAXIMUM STEPSIZE WHICH MEETS STABILITY CRITERION OF THE SINK & SOURCE TERM
 = 0.1000E+31(WHEN MIN. R.F.=1)  AT K=   0, I=   0, J=   0

 MAXIMUM STEPSIZE WHICH MEETS STABILITY CRITERION OF THE DISPERSION TERM
 = 0.7281E-02(WHEN MIN. R.F.=1)  AT K=   3, I=   2, J=  30
     1 CALLS TO GCG PACKAGE FOR TRANSPORT TIME STEP   5 IN FLOW TIME STEP  44 STRESS PERIOD   2
    16 TOTAL ITERATIONS
 
 SOLVING FOR HEAD 
 FLOW MODEL IS TRANSIENT
 FLOW MODEL CONTAINS CONSTANT-HEAD CELLS


 MAXIMUM STEPSIZE DURING WHICH ANY PARTICLE CANNOT MOVE MORE THAN ONE CELL
 = 0.1699    (WHEN MIN. R.F.=1)  AT K=   3, I=   2, J=  30

 MAXIMUM STEPSIZE WHICH MEETS STABILITY CRITERION OF THE ADVECTION TERM
 (FOR PURE FINITE-DIFFERENCE OPTION, MIXELM=0) 
 = 0.1347    (WHEN MIN. R.F.=1)  AT K=   3, I=   2, J=  31


 TOTAL NUMBER OF POINT SOURCES/SINKS PRESENT IN THE FLOW MODEL =   240

 MAXIMUM STEPSIZE WHICH MEETS STABILITY CRITERION OF THE SINK & SOURCE TERM
 = 0.1000E+31(WHEN MIN. R.F.=1)  AT K=   0, I=   0, J=   0

 MAXIMUM STEPSIZE WHICH MEETS STABILITY CRITERION OF THE DISPERSION TERM
 = 0.7281E-02(WHEN MIN. R.F.=1)  AT K=   3, I=   2, J=  30
     1 CALLS TO GCG PACKAGE FOR TRANSPORT TIME STEP   6 IN FLOW TIME STEP  44 STRESS PERIOD   2
    16 TOTAL ITERATIONS
 
 SOLVING FOR HEAD 
 FLOW MODEL IS TRANSIENT
 FLOW MODEL CONTAINS CONSTANT-HEAD CELLS


 MAXIMUM STEPSIZE DURING WHICH ANY PARTICLE CANNOT MOVE MORE THAN ONE CELL
 = 0.1699    (WHEN MIN. R.F.=1)  AT K=   3, I=   2, J=  30

 MAXIMUM STEPSIZE WHICH MEETS STABILITY CRITERION OF THE ADVECTION TERM
 (FOR PURE FINITE-DIFFERENCE OPTION, MIXELM=0) 
 = 0.1347    (WHEN MIN. R.F.=1)  AT K=   3, I=   2, J=  31


 TOTAL NUMBER OF POINT SOURCES/SINKS PRESENT IN THE FLOW MODEL =   240

 MAXIMUM STEPSIZE WHICH MEETS STABILITY CRITERION OF THE SINK & SOURCE TERM
 = 0.1000E+31(WHEN MIN. R.F.=1)  AT K=   0, I=   0, J=   0

 MAXIMUM STEPSIZE WHICH MEETS STABILITY CRITERION OF THE DISPERSION TERM
 = 0.7281E-02(WHEN MIN. R.F.=1)  AT K=   3, I=   2, J=  30
     1 CALLS TO GCG PACKAGE FOR TRANSPORT TIME STEP   7 IN FLOW TIME STEP  44 STRESS PERIOD   2
    16 TOTAL ITERATIONS
 
 SOLVING FOR HEAD 
 FLOW MODEL IS TRANSIENT
 FLOW MODEL CONTAINS CONSTANT-HEAD CELLS


 MAXIMUM STEPSIZE DURING WHICH ANY PARTICLE CANNOT MOVE MORE THAN ONE CELL
 = 0.1699    (WHEN MIN. R.F.=1)  AT K=   3, I=   2, J=  30

 MAXIMUM STEPSIZE WHICH MEETS STABILITY CRITERION OF THE ADVECTION TERM
 (FOR PURE FINITE-DIFFERENCE OPTION, MIXELM=0) 
 = 0.1347    (WHEN MIN. R.F.=1)  AT K=   3, I=   2, J=  31


 TOTAL NUMBER OF POINT SOURCES/SINKS PRESENT IN THE FLOW MODEL =   240

 MAXIMUM STEPSIZE WHICH MEETS STABILITY CRITERION OF THE SINK & SOURCE TERM
 = 0.1000E+31(WHEN MIN. R.F.=1)  AT K=   0, I=   0, J=   0

 MAXIMUM STEPSIZE WHICH MEETS STABILITY CRITERION OF THE DISPERSION TERM
 = 0.7281E-02(WHEN MIN. R.F.=1)  AT K=   3, I=   2, J=  30
     1 CALLS TO GCG PACKAGE FOR TRANSPORT TIME STEP   8 IN FLOW TIME STEP  44 STRESS PERIOD   2
    14 TOTAL ITERATIONS
  MAXIMUM CONCENTRATION CHANGES FOR EACH ITERATION:
  MAX. CHANGE LAYER,ROW,COL MAX. CHANGE LAYER,ROW,COL MAX. CHANGE LAYER,ROW,COL MAX. CHANGE LAYER,ROW,COL MAX. CHANGE LAYER,ROW,COL
 ------------------------------------------------------------------------------------------------------------------------------------
   0.1160E-02 ( 13,  1, 59)  0.1868E-03 (  9,  1, 57)  0.5376E-04 (  5,  2, 62)  0.2090E-04 (  5,  2, 53)  0.8434E-05 (  4,  2, 53)
   0.5745E-05 (  3,  3, 31)  0.3768E-05 (  4,  3, 31)  0.2552E-05 (  3,  3, 29)  0.1622E-05 (  3,  3, 32)  0.9169E-06 (  3,  3, 29)
   0.4953E-06 (  3,  3, 30)  0.2654E-06 (  4,  3, 30)  0.1665E-06 (  4,  3, 31)  0.9349E-07 (  3,  3, 31)


                                          ================================================
                                                         FROM TIME =   45.000     TO    46.000    

 
 SOLVING FOR HEAD 
 FLOW MODEL IS TRANSIENT
 FLOW MODEL CONTAINS CONSTANT-HEAD CELLS


 MAXIMUM STEPSIZE DURING WHICH ANY PARTICLE CANNOT MOVE MORE THAN ONE CELL
 = 0.1699    (WHEN MIN. R.F.=1)  AT K=   3, I=   2, J=  30

 MAXIMUM STEPSIZE WHICH MEETS STABILITY CRITERION OF THE ADVECTION TERM
 (FOR PURE FINITE-DIFFERENCE OPTION, MIXELM=0) 
 = 0.1347    (WHEN MIN. R.F.=1)  AT K=   3, I=   2, J=  31


 TOTAL NUMBER OF POINT SOURCES/SINKS PRESENT IN THE FLOW MODEL =   240

 MAXIMUM STEPSIZE WHICH MEETS STABILITY CRITERION OF THE SINK & SOURCE TERM
 = 0.1000E+31(WHEN MIN. R.F.=1)  AT K=   0, I=   0, J=   0

 MAXIMUM STEPSIZE WHICH MEETS STABILITY CRITERION OF THE DISPERSION TERM
 = 0.7281E-02(WHEN MIN. R.F.=1)  AT K=   3, I=   2, J=  30


     1 CALLS TO GCG PACKAGE FOR TRANSPORT TIME STEP   1 IN FLOW TIME STEP  45 STRESS PERIOD   2
    16 TOTAL ITERATIONS

 NO OUTPUT CONTROL FOR STRESS PERIOD    2   TIME STEP  45
 
 SOLVING FOR HEAD 
 FLOW MODEL IS TRANSIENT
 FLOW MODEL CONTAINS CONSTANT-HEAD CELLS


 MAXIMUM STEPSIZE DURING WHICH ANY PARTICLE CANNOT MOVE MORE THAN ONE CELL
 = 0.1699    (WHEN MIN. R.F.=1)  AT K=   3, I=   2, J=  30

 MAXIMUM STEPSIZE WHICH MEETS STABILITY CRITERION OF THE ADVECTION TERM
 (FOR PURE FINITE-DIFFERENCE OPTION, MIXELM=0) 
 = 0.1347    (WHEN MIN. R.F.=1)  AT K=   3, I=   2, J=  31


 TOTAL NUMBER OF POINT SOURCES/SINKS PRESENT IN THE FLOW MODEL =   240

 MAXIMUM STEPSIZE WHICH MEETS STABILITY CRITERION OF THE SINK & SOURCE TERM
 = 0.1000E+31(WHEN MIN. R.F.=1)  AT K=   0, I=   0, J=   0

 MAXIMUM STEPSIZE WHICH MEETS STABILITY CRITERION OF THE DISPERSION TERM
 = 0.7281E-02(WHEN MIN. R.F.=1)  AT K=   3, I=   2, J=  30
     1 CALLS TO GCG PACKAGE FOR TRANSPORT TIME STEP   2 IN FLOW TIME STEP  45 STRESS PERIOD   2
    16 TOTAL ITERATIONS
 
 SOLVING FOR HEAD 
 FLOW MODEL IS TRANSIENT
 FLOW MODEL CONTAINS CONSTANT-HEAD CELLS


 MAXIMUM STEPSIZE DURING WHICH ANY PARTICLE CANNOT MOVE MORE THAN ONE CELL
 = 0.1699    (WHEN MIN. R.F.=1)  AT K=   3, I=   2, J=  30

 MAXIMUM STEPSIZE WHICH MEETS STABILITY CRITERION OF THE ADVECTION TERM
 (FOR PURE FINITE-DIFFERENCE OPTION, MIXELM=0) 
 = 0.1347    (WHEN MIN. R.F.=1)  AT K=   3, I=   2, J=  31


 TOTAL NUMBER OF POINT SOURCES/SINKS PRESENT IN THE FLOW MODEL =   240

 MAXIMUM STEPSIZE WHICH MEETS STABILITY CRITERION OF THE SINK & SOURCE TERM
 = 0.1000E+31(WHEN MIN. R.F.=1)  AT K=   0, I=   0, J=   0

 MAXIMUM STEPSIZE WHICH MEETS STABILITY CRITERION OF THE DISPERSION TERM
 = 0.7281E-02(WHEN MIN. R.F.=1)  AT K=   3, I=   2, J=  30
     1 CALLS TO GCG PACKAGE FOR TRANSPORT TIME STEP   3 IN FLOW TIME STEP  45 STRESS PERIOD   2
    16 TOTAL ITERATIONS
 
 SOLVING FOR HEAD 
 FLOW MODEL IS TRANSIENT
 FLOW MODEL CONTAINS CONSTANT-HEAD CELLS


 MAXIMUM STEPSIZE DURING WHICH ANY PARTICLE CANNOT MOVE MORE THAN ONE CELL
 = 0.1699    (WHEN MIN. R.F.=1)  AT K=   3, I=   2, J=  30

 MAXIMUM STEPSIZE WHICH MEETS STABILITY CRITERION OF THE ADVECTION TERM
 (FOR PURE FINITE-DIFFERENCE OPTION, MIXELM=0) 
 = 0.1347    (WHEN MIN. R.F.=1)  AT K=   3, I=   2, J=  31


 TOTAL NUMBER OF POINT SOURCES/SINKS PRESENT IN THE FLOW MODEL =   240

 MAXIMUM STEPSIZE WHICH MEETS STABILITY CRITERION OF THE SINK & SOURCE TERM
 = 0.1000E+31(WHEN MIN. R.F.=1)  AT K=   0, I=   0, J=   0

 MAXIMUM STEPSIZE WHICH MEETS STABILITY CRITERION OF THE DISPERSION TERM
 = 0.7281E-02(WHEN MIN. R.F.=1)  AT K=   3, I=   2, J=  30
     1 CALLS TO GCG PACKAGE FOR TRANSPORT TIME STEP   4 IN FLOW TIME STEP  45 STRESS PERIOD   2
    16 TOTAL ITERATIONS
 
 SOLVING FOR HEAD 
 FLOW MODEL IS TRANSIENT
 FLOW MODEL CONTAINS CONSTANT-HEAD CELLS


 MAXIMUM STEPSIZE DURING WHICH ANY PARTICLE CANNOT MOVE MORE THAN ONE CELL
 = 0.1699    (WHEN MIN. R.F.=1)  AT K=   3, I=   2, J=  30

 MAXIMUM STEPSIZE WHICH MEETS STABILITY CRITERION OF THE ADVECTION TERM
 (FOR PURE FINITE-DIFFERENCE OPTION, MIXELM=0) 
 = 0.1347    (WHEN MIN. R.F.=1)  AT K=   3, I=   2, J=  31


 TOTAL NUMBER OF POINT SOURCES/SINKS PRESENT IN THE FLOW MODEL =   240

 MAXIMUM STEPSIZE WHICH MEETS STABILITY CRITERION OF THE SINK & SOURCE TERM
 = 0.1000E+31(WHEN MIN. R.F.=1)  AT K=   0, I=   0, J=   0

 MAXIMUM STEPSIZE WHICH MEETS STABILITY CRITERION OF THE DISPERSION TERM
 = 0.7281E-02(WHEN MIN. R.F.=1)  AT K=   3, I=   2, J=  30
     1 CALLS TO GCG PACKAGE FOR TRANSPORT TIME STEP   5 IN FLOW TIME STEP  45 STRESS PERIOD   2
    16 TOTAL ITERATIONS
 
 SOLVING FOR HEAD 
 FLOW MODEL IS TRANSIENT
 FLOW MODEL CONTAINS CONSTANT-HEAD CELLS


 MAXIMUM STEPSIZE DURING WHICH ANY PARTICLE CANNOT MOVE MORE THAN ONE CELL
 = 0.1699    (WHEN MIN. R.F.=1)  AT K=   3, I=   2, J=  30

 MAXIMUM STEPSIZE WHICH MEETS STABILITY CRITERION OF THE ADVECTION TERM
 (FOR PURE FINITE-DIFFERENCE OPTION, MIXELM=0) 
 = 0.1347    (WHEN MIN. R.F.=1)  AT K=   3, I=   2, J=  31


 TOTAL NUMBER OF POINT SOURCES/SINKS PRESENT IN THE FLOW MODEL =   240

 MAXIMUM STEPSIZE WHICH MEETS STABILITY CRITERION OF THE SINK & SOURCE TERM
 = 0.1000E+31(WHEN MIN. R.F.=1)  AT K=   0, I=   0, J=   0

 MAXIMUM STEPSIZE WHICH MEETS STABILITY CRITERION OF THE DISPERSION TERM
 = 0.7281E-02(WHEN MIN. R.F.=1)  AT K=   3, I=   2, J=  30
     1 CALLS TO GCG PACKAGE FOR TRANSPORT TIME STEP   6 IN FLOW TIME STEP  45 STRESS PERIOD   2
    16 TOTAL ITERATIONS
 
 SOLVING FOR HEAD 
 FLOW MODEL IS TRANSIENT
 FLOW MODEL CONTAINS CONSTANT-HEAD CELLS


 MAXIMUM STEPSIZE DURING WHICH ANY PARTICLE CANNOT MOVE MORE THAN ONE CELL
 = 0.1699    (WHEN MIN. R.F.=1)  AT K=   3, I=   2, J=  30

 MAXIMUM STEPSIZE WHICH MEETS STABILITY CRITERION OF THE ADVECTION TERM
 (FOR PURE FINITE-DIFFERENCE OPTION, MIXELM=0) 
 = 0.1347    (WHEN MIN. R.F.=1)  AT K=   3, I=   2, J=  31


 TOTAL NUMBER OF POINT SOURCES/SINKS PRESENT IN THE FLOW MODEL =   240

 MAXIMUM STEPSIZE WHICH MEETS STABILITY CRITERION OF THE SINK & SOURCE TERM
 = 0.1000E+31(WHEN MIN. R.F.=1)  AT K=   0, I=   0, J=   0

 MAXIMUM STEPSIZE WHICH MEETS STABILITY CRITERION OF THE DISPERSION TERM
 = 0.7281E-02(WHEN MIN. R.F.=1)  AT K=   3, I=   2, J=  30
     1 CALLS TO GCG PACKAGE FOR TRANSPORT TIME STEP   7 IN FLOW TIME STEP  45 STRESS PERIOD   2
    16 TOTAL ITERATIONS
 
 SOLVING FOR HEAD 
 FLOW MODEL IS TRANSIENT
 FLOW MODEL CONTAINS CONSTANT-HEAD CELLS


 MAXIMUM STEPSIZE DURING WHICH ANY PARTICLE CANNOT MOVE MORE THAN ONE CELL
 = 0.1699    (WHEN MIN. R.F.=1)  AT K=   3, I=   2, J=  30

 MAXIMUM STEPSIZE WHICH MEETS STABILITY CRITERION OF THE ADVECTION TERM
 (FOR PURE FINITE-DIFFERENCE OPTION, MIXELM=0) 
 = 0.1347    (WHEN MIN. R.F.=1)  AT K=   3, I=   2, J=  31


 TOTAL NUMBER OF POINT SOURCES/SINKS PRESENT IN THE FLOW MODEL =   240

 MAXIMUM STEPSIZE WHICH MEETS STABILITY CRITERION OF THE SINK & SOURCE TERM
 = 0.1000E+31(WHEN MIN. R.F.=1)  AT K=   0, I=   0, J=   0

 MAXIMUM STEPSIZE WHICH MEETS STABILITY CRITERION OF THE DISPERSION TERM
 = 0.7281E-02(WHEN MIN. R.F.=1)  AT K=   3, I=   2, J=  30
     1 CALLS TO GCG PACKAGE FOR TRANSPORT TIME STEP   8 IN FLOW TIME STEP  45 STRESS PERIOD   2
    14 TOTAL ITERATIONS
  MAXIMUM CONCENTRATION CHANGES FOR EACH ITERATION:
  MAX. CHANGE LAYER,ROW,COL MAX. CHANGE LAYER,ROW,COL MAX. CHANGE LAYER,ROW,COL MAX. CHANGE LAYER,ROW,COL MAX. CHANGE LAYER,ROW,COL
 ------------------------------------------------------------------------------------------------------------------------------------
   0.1142E-02 ( 13,  1, 59)  0.1813E-03 (  9,  1, 57)  0.5172E-04 (  5,  2, 62)  0.1998E-04 (  5,  2, 54)  0.8082E-05 (  4,  2, 53)
   0.5426E-05 (  3,  3, 31)  0.3579E-05 (  4,  3, 31)  0.2420E-05 (  3,  3, 29)  0.1543E-05 (  3,  3, 32)  0.8716E-06 (  3,  3, 29)
   0.4728E-06 (  4,  3, 29)  0.2523E-06 (  4,  3, 30)  0.1586E-06 (  4,  3, 31)  0.8892E-07 (  3,  3, 31)


                                          ================================================
                                                         FROM TIME =   46.000     TO    47.000    

 
 SOLVING FOR HEAD 
 FLOW MODEL IS TRANSIENT
 FLOW MODEL CONTAINS CONSTANT-HEAD CELLS


 MAXIMUM STEPSIZE DURING WHICH ANY PARTICLE CANNOT MOVE MORE THAN ONE CELL
 = 0.1699    (WHEN MIN. R.F.=1)  AT K=   3, I=   2, J=  30

 MAXIMUM STEPSIZE WHICH MEETS STABILITY CRITERION OF THE ADVECTION TERM
 (FOR PURE FINITE-DIFFERENCE OPTION, MIXELM=0) 
 = 0.1347    (WHEN MIN. R.F.=1)  AT K=   3, I=   2, J=  31


 TOTAL NUMBER OF POINT SOURCES/SINKS PRESENT IN THE FLOW MODEL =   240

 MAXIMUM STEPSIZE WHICH MEETS STABILITY CRITERION OF THE SINK & SOURCE TERM
 = 0.1000E+31(WHEN MIN. R.F.=1)  AT K=   0, I=   0, J=   0

 MAXIMUM STEPSIZE WHICH MEETS STABILITY CRITERION OF THE DISPERSION TERM
 = 0.7281E-02(WHEN MIN. R.F.=1)  AT K=   3, I=   2, J=  30


     1 CALLS TO GCG PACKAGE FOR TRANSPORT TIME STEP   1 IN FLOW TIME STEP  46 STRESS PERIOD   2
    16 TOTAL ITERATIONS

 NO OUTPUT CONTROL FOR STRESS PERIOD    2   TIME STEP  46
 
 SOLVING FOR HEAD 
 FLOW MODEL IS TRANSIENT
 FLOW MODEL CONTAINS CONSTANT-HEAD CELLS


 MAXIMUM STEPSIZE DURING WHICH ANY PARTICLE CANNOT MOVE MORE THAN ONE CELL
 = 0.1699    (WHEN MIN. R.F.=1)  AT K=   3, I=   2, J=  30

 MAXIMUM STEPSIZE WHICH MEETS STABILITY CRITERION OF THE ADVECTION TERM
 (FOR PURE FINITE-DIFFERENCE OPTION, MIXELM=0) 
 = 0.1347    (WHEN MIN. R.F.=1)  AT K=   3, I=   2, J=  31


 TOTAL NUMBER OF POINT SOURCES/SINKS PRESENT IN THE FLOW MODEL =   240

 MAXIMUM STEPSIZE WHICH MEETS STABILITY CRITERION OF THE SINK & SOURCE TERM
 = 0.1000E+31(WHEN MIN. R.F.=1)  AT K=   0, I=   0, J=   0

 MAXIMUM STEPSIZE WHICH MEETS STABILITY CRITERION OF THE DISPERSION TERM
 = 0.7280E-02(WHEN MIN. R.F.=1)  AT K=   3, I=   2, J=  30
     1 CALLS TO GCG PACKAGE FOR TRANSPORT TIME STEP   2 IN FLOW TIME STEP  46 STRESS PERIOD   2
    16 TOTAL ITERATIONS
 
 SOLVING FOR HEAD 
 FLOW MODEL IS TRANSIENT
 FLOW MODEL CONTAINS CONSTANT-HEAD CELLS


 MAXIMUM STEPSIZE DURING WHICH ANY PARTICLE CANNOT MOVE MORE THAN ONE CELL
 = 0.1699    (WHEN MIN. R.F.=1)  AT K=   3, I=   2, J=  30

 MAXIMUM STEPSIZE WHICH MEETS STABILITY CRITERION OF THE ADVECTION TERM
 (FOR PURE FINITE-DIFFERENCE OPTION, MIXELM=0) 
 = 0.1347    (WHEN MIN. R.F.=1)  AT K=   3, I=   2, J=  31


 TOTAL NUMBER OF POINT SOURCES/SINKS PRESENT IN THE FLOW MODEL =   240

 MAXIMUM STEPSIZE WHICH MEETS STABILITY CRITERION OF THE SINK & SOURCE TERM
 = 0.1000E+31(WHEN MIN. R.F.=1)  AT K=   0, I=   0, J=   0

 MAXIMUM STEPSIZE WHICH MEETS STABILITY CRITERION OF THE DISPERSION TERM
 = 0.7280E-02(WHEN MIN. R.F.=1)  AT K=   3, I=   2, J=  30
     1 CALLS TO GCG PACKAGE FOR TRANSPORT TIME STEP   3 IN FLOW TIME STEP  46 STRESS PERIOD   2
    16 TOTAL ITERATIONS
 
 SOLVING FOR HEAD 
 FLOW MODEL IS TRANSIENT
 FLOW MODEL CONTAINS CONSTANT-HEAD CELLS


 MAXIMUM STEPSIZE DURING WHICH ANY PARTICLE CANNOT MOVE MORE THAN ONE CELL
 = 0.1699    (WHEN MIN. R.F.=1)  AT K=   3, I=   2, J=  30

 MAXIMUM STEPSIZE WHICH MEETS STABILITY CRITERION OF THE ADVECTION TERM
 (FOR PURE FINITE-DIFFERENCE OPTION, MIXELM=0) 
 = 0.1347    (WHEN MIN. R.F.=1)  AT K=   3, I=   2, J=  31


 TOTAL NUMBER OF POINT SOURCES/SINKS PRESENT IN THE FLOW MODEL =   240

 MAXIMUM STEPSIZE WHICH MEETS STABILITY CRITERION OF THE SINK & SOURCE TERM
 = 0.1000E+31(WHEN MIN. R.F.=1)  AT K=   0, I=   0, J=   0

 MAXIMUM STEPSIZE WHICH MEETS STABILITY CRITERION OF THE DISPERSION TERM
 = 0.7280E-02(WHEN MIN. R.F.=1)  AT K=   3, I=   2, J=  30
     1 CALLS TO GCG PACKAGE FOR TRANSPORT TIME STEP   4 IN FLOW TIME STEP  46 STRESS PERIOD   2
    16 TOTAL ITERATIONS
 
 SOLVING FOR HEAD 
 FLOW MODEL IS TRANSIENT
 FLOW MODEL CONTAINS CONSTANT-HEAD CELLS


 MAXIMUM STEPSIZE DURING WHICH ANY PARTICLE CANNOT MOVE MORE THAN ONE CELL
 = 0.1699    (WHEN MIN. R.F.=1)  AT K=   3, I=   2, J=  30

 MAXIMUM STEPSIZE WHICH MEETS STABILITY CRITERION OF THE ADVECTION TERM
 (FOR PURE FINITE-DIFFERENCE OPTION, MIXELM=0) 
 = 0.1347    (WHEN MIN. R.F.=1)  AT K=   3, I=   2, J=  31


 TOTAL NUMBER OF POINT SOURCES/SINKS PRESENT IN THE FLOW MODEL =   240

 MAXIMUM STEPSIZE WHICH MEETS STABILITY CRITERION OF THE SINK & SOURCE TERM
 = 0.1000E+31(WHEN MIN. R.F.=1)  AT K=   0, I=   0, J=   0

 MAXIMUM STEPSIZE WHICH MEETS STABILITY CRITERION OF THE DISPERSION TERM
 = 0.7280E-02(WHEN MIN. R.F.=1)  AT K=   3, I=   2, J=  30
     1 CALLS TO GCG PACKAGE FOR TRANSPORT TIME STEP   5 IN FLOW TIME STEP  46 STRESS PERIOD   2
    15 TOTAL ITERATIONS
 
 SOLVING FOR HEAD 
 FLOW MODEL IS TRANSIENT
 FLOW MODEL CONTAINS CONSTANT-HEAD CELLS


 MAXIMUM STEPSIZE DURING WHICH ANY PARTICLE CANNOT MOVE MORE THAN ONE CELL
 = 0.1699    (WHEN MIN. R.F.=1)  AT K=   3, I=   2, J=  30

 MAXIMUM STEPSIZE WHICH MEETS STABILITY CRITERION OF THE ADVECTION TERM
 (FOR PURE FINITE-DIFFERENCE OPTION, MIXELM=0) 
 = 0.1347    (WHEN MIN. R.F.=1)  AT K=   3, I=   2, J=  31


 TOTAL NUMBER OF POINT SOURCES/SINKS PRESENT IN THE FLOW MODEL =   240

 MAXIMUM STEPSIZE WHICH MEETS STABILITY CRITERION OF THE SINK & SOURCE TERM
 = 0.1000E+31(WHEN MIN. R.F.=1)  AT K=   0, I=   0, J=   0

 MAXIMUM STEPSIZE WHICH MEETS STABILITY CRITERION OF THE DISPERSION TERM
 = 0.7280E-02(WHEN MIN. R.F.=1)  AT K=   3, I=   2, J=  30
     1 CALLS TO GCG PACKAGE FOR TRANSPORT TIME STEP   6 IN FLOW TIME STEP  46 STRESS PERIOD   2
    15 TOTAL ITERATIONS
 
 SOLVING FOR HEAD 
 FLOW MODEL IS TRANSIENT
 FLOW MODEL CONTAINS CONSTANT-HEAD CELLS


 MAXIMUM STEPSIZE DURING WHICH ANY PARTICLE CANNOT MOVE MORE THAN ONE CELL
 = 0.1699    (WHEN MIN. R.F.=1)  AT K=   3, I=   2, J=  30

 MAXIMUM STEPSIZE WHICH MEETS STABILITY CRITERION OF THE ADVECTION TERM
 (FOR PURE FINITE-DIFFERENCE OPTION, MIXELM=0) 
 = 0.1347    (WHEN MIN. R.F.=1)  AT K=   3, I=   2, J=  31


 TOTAL NUMBER OF POINT SOURCES/SINKS PRESENT IN THE FLOW MODEL =   240

 MAXIMUM STEPSIZE WHICH MEETS STABILITY CRITERION OF THE SINK & SOURCE TERM
 = 0.1000E+31(WHEN MIN. R.F.=1)  AT K=   0, I=   0, J=   0

 MAXIMUM STEPSIZE WHICH MEETS STABILITY CRITERION OF THE DISPERSION TERM
 = 0.7280E-02(WHEN MIN. R.F.=1)  AT K=   3, I=   2, J=  30
     1 CALLS TO GCG PACKAGE FOR TRANSPORT TIME STEP   7 IN FLOW TIME STEP  46 STRESS PERIOD   2
    15 TOTAL ITERATIONS
 
 SOLVING FOR HEAD 
 FLOW MODEL IS TRANSIENT
 FLOW MODEL CONTAINS CONSTANT-HEAD CELLS


 MAXIMUM STEPSIZE DURING WHICH ANY PARTICLE CANNOT MOVE MORE THAN ONE CELL
 = 0.1699    (WHEN MIN. R.F.=1)  AT K=   3, I=   2, J=  30

 MAXIMUM STEPSIZE WHICH MEETS STABILITY CRITERION OF THE ADVECTION TERM
 (FOR PURE FINITE-DIFFERENCE OPTION, MIXELM=0) 
 = 0.1347    (WHEN MIN. R.F.=1)  AT K=   3, I=   2, J=  31


 TOTAL NUMBER OF POINT SOURCES/SINKS PRESENT IN THE FLOW MODEL =   240

 MAXIMUM STEPSIZE WHICH MEETS STABILITY CRITERION OF THE SINK & SOURCE TERM
 = 0.1000E+31(WHEN MIN. R.F.=1)  AT K=   0, I=   0, J=   0

 MAXIMUM STEPSIZE WHICH MEETS STABILITY CRITERION OF THE DISPERSION TERM
 = 0.7280E-02(WHEN MIN. R.F.=1)  AT K=   3, I=   2, J=  30
     1 CALLS TO GCG PACKAGE FOR TRANSPORT TIME STEP   8 IN FLOW TIME STEP  46 STRESS PERIOD   2
    14 TOTAL ITERATIONS
  MAXIMUM CONCENTRATION CHANGES FOR EACH ITERATION:
  MAX. CHANGE LAYER,ROW,COL MAX. CHANGE LAYER,ROW,COL MAX. CHANGE LAYER,ROW,COL MAX. CHANGE LAYER,ROW,COL MAX. CHANGE LAYER,ROW,COL
 ------------------------------------------------------------------------------------------------------------------------------------
   0.1124E-02 ( 13,  1, 59)  0.1759E-03 (  9,  1, 57)  0.4977E-04 (  5,  2, 62)  0.1913E-04 (  5,  2, 54)  0.7741E-05 (  4,  2, 53)
   0.5080E-05 (  3,  2, 31)  0.3432E-05 (  3,  2, 30)  0.2336E-05 (  3,  2, 29)  0.1468E-05 (  4,  2, 29)  0.8277E-06 (  3,  2, 29)
   0.4602E-06 (  3,  2, 30)  0.2405E-06 (  3,  3, 33)  0.1503E-06 (  4,  2, 31)  0.8327E-07 (  3,  3, 31)


                                          ================================================
                                                         FROM TIME =   47.000     TO    48.000    

 
 SOLVING FOR HEAD 
 FLOW MODEL IS TRANSIENT
 FLOW MODEL CONTAINS CONSTANT-HEAD CELLS


 MAXIMUM STEPSIZE DURING WHICH ANY PARTICLE CANNOT MOVE MORE THAN ONE CELL
 = 0.1699    (WHEN MIN. R.F.=1)  AT K=   3, I=   2, J=  30

 MAXIMUM STEPSIZE WHICH MEETS STABILITY CRITERION OF THE ADVECTION TERM
 (FOR PURE FINITE-DIFFERENCE OPTION, MIXELM=0) 
 = 0.1347    (WHEN MIN. R.F.=1)  AT K=   3, I=   2, J=  31


 TOTAL NUMBER OF POINT SOURCES/SINKS PRESENT IN THE FLOW MODEL =   240

 MAXIMUM STEPSIZE WHICH MEETS STABILITY CRITERION OF THE SINK & SOURCE TERM
 = 0.1000E+31(WHEN MIN. R.F.=1)  AT K=   0, I=   0, J=   0

 MAXIMUM STEPSIZE WHICH MEETS STABILITY CRITERION OF THE DISPERSION TERM
 = 0.7280E-02(WHEN MIN. R.F.=1)  AT K=   3, I=   2, J=  30


     1 CALLS TO GCG PACKAGE FOR TRANSPORT TIME STEP   1 IN FLOW TIME STEP  47 STRESS PERIOD   2
    15 TOTAL ITERATIONS

 NO OUTPUT CONTROL FOR STRESS PERIOD    2   TIME STEP  47
 
 SOLVING FOR HEAD 
 FLOW MODEL IS TRANSIENT
 FLOW MODEL CONTAINS CONSTANT-HEAD CELLS


 MAXIMUM STEPSIZE DURING WHICH ANY PARTICLE CANNOT MOVE MORE THAN ONE CELL
 = 0.1699    (WHEN MIN. R.F.=1)  AT K=   3, I=   2, J=  30

 MAXIMUM STEPSIZE WHICH MEETS STABILITY CRITERION OF THE ADVECTION TERM
 (FOR PURE FINITE-DIFFERENCE OPTION, MIXELM=0) 
 = 0.1347    (WHEN MIN. R.F.=1)  AT K=   3, I=   2, J=  31


 TOTAL NUMBER OF POINT SOURCES/SINKS PRESENT IN THE FLOW MODEL =   240

 MAXIMUM STEPSIZE WHICH MEETS STABILITY CRITERION OF THE SINK & SOURCE TERM
 = 0.1000E+31(WHEN MIN. R.F.=1)  AT K=   0, I=   0, J=   0

 MAXIMUM STEPSIZE WHICH MEETS STABILITY CRITERION OF THE DISPERSION TERM
 = 0.7280E-02(WHEN MIN. R.F.=1)  AT K=   3, I=   2, J=  30
     1 CALLS TO GCG PACKAGE FOR TRANSPORT TIME STEP   2 IN FLOW TIME STEP  47 STRESS PERIOD   2
    15 TOTAL ITERATIONS
 
 SOLVING FOR HEAD 
 FLOW MODEL IS TRANSIENT
 FLOW MODEL CONTAINS CONSTANT-HEAD CELLS


 MAXIMUM STEPSIZE DURING WHICH ANY PARTICLE CANNOT MOVE MORE THAN ONE CELL
 = 0.1699    (WHEN MIN. R.F.=1)  AT K=   3, I=   2, J=  30

 MAXIMUM STEPSIZE WHICH MEETS STABILITY CRITERION OF THE ADVECTION TERM
 (FOR PURE FINITE-DIFFERENCE OPTION, MIXELM=0) 
 = 0.1347    (WHEN MIN. R.F.=1)  AT K=   3, I=   2, J=  31


 TOTAL NUMBER OF POINT SOURCES/SINKS PRESENT IN THE FLOW MODEL =   240

 MAXIMUM STEPSIZE WHICH MEETS STABILITY CRITERION OF THE SINK & SOURCE TERM
 = 0.1000E+31(WHEN MIN. R.F.=1)  AT K=   0, I=   0, J=   0

 MAXIMUM STEPSIZE WHICH MEETS STABILITY CRITERION OF THE DISPERSION TERM
 = 0.7280E-02(WHEN MIN. R.F.=1)  AT K=   3, I=   2, J=  30
     1 CALLS TO GCG PACKAGE FOR TRANSPORT TIME STEP   3 IN FLOW TIME STEP  47 STRESS PERIOD   2
    15 TOTAL ITERATIONS
 
 SOLVING FOR HEAD 
 FLOW MODEL IS TRANSIENT
 FLOW MODEL CONTAINS CONSTANT-HEAD CELLS


 MAXIMUM STEPSIZE DURING WHICH ANY PARTICLE CANNOT MOVE MORE THAN ONE CELL
 = 0.1699    (WHEN MIN. R.F.=1)  AT K=   3, I=   2, J=  30

 MAXIMUM STEPSIZE WHICH MEETS STABILITY CRITERION OF THE ADVECTION TERM
 (FOR PURE FINITE-DIFFERENCE OPTION, MIXELM=0) 
 = 0.1347    (WHEN MIN. R.F.=1)  AT K=   3, I=   2, J=  31


 TOTAL NUMBER OF POINT SOURCES/SINKS PRESENT IN THE FLOW MODEL =   240

 MAXIMUM STEPSIZE WHICH MEETS STABILITY CRITERION OF THE SINK & SOURCE TERM
 = 0.1000E+31(WHEN MIN. R.F.=1)  AT K=   0, I=   0, J=   0

 MAXIMUM STEPSIZE WHICH MEETS STABILITY CRITERION OF THE DISPERSION TERM
 = 0.7280E-02(WHEN MIN. R.F.=1)  AT K=   3, I=   2, J=  30
     1 CALLS TO GCG PACKAGE FOR TRANSPORT TIME STEP   4 IN FLOW TIME STEP  47 STRESS PERIOD   2
    15 TOTAL ITERATIONS
 
 SOLVING FOR HEAD 
 FLOW MODEL IS TRANSIENT
 FLOW MODEL CONTAINS CONSTANT-HEAD CELLS


 MAXIMUM STEPSIZE DURING WHICH ANY PARTICLE CANNOT MOVE MORE THAN ONE CELL
 = 0.1699    (WHEN MIN. R.F.=1)  AT K=   3, I=   2, J=  30

 MAXIMUM STEPSIZE WHICH MEETS STABILITY CRITERION OF THE ADVECTION TERM
 (FOR PURE FINITE-DIFFERENCE OPTION, MIXELM=0) 
 = 0.1347    (WHEN MIN. R.F.=1)  AT K=   3, I=   2, J=  31


 TOTAL NUMBER OF POINT SOURCES/SINKS PRESENT IN THE FLOW MODEL =   240

 MAXIMUM STEPSIZE WHICH MEETS STABILITY CRITERION OF THE SINK & SOURCE TERM
 = 0.1000E+31(WHEN MIN. R.F.=1)  AT K=   0, I=   0, J=   0

 MAXIMUM STEPSIZE WHICH MEETS STABILITY CRITERION OF THE DISPERSION TERM
 = 0.7280E-02(WHEN MIN. R.F.=1)  AT K=   3, I=   2, J=  30
     1 CALLS TO GCG PACKAGE FOR TRANSPORT TIME STEP   5 IN FLOW TIME STEP  47 STRESS PERIOD   2
    15 TOTAL ITERATIONS
 
 SOLVING FOR HEAD 
 FLOW MODEL IS TRANSIENT
 FLOW MODEL CONTAINS CONSTANT-HEAD CELLS


 MAXIMUM STEPSIZE DURING WHICH ANY PARTICLE CANNOT MOVE MORE THAN ONE CELL
 = 0.1699    (WHEN MIN. R.F.=1)  AT K=   3, I=   2, J=  30

 MAXIMUM STEPSIZE WHICH MEETS STABILITY CRITERION OF THE ADVECTION TERM
 (FOR PURE FINITE-DIFFERENCE OPTION, MIXELM=0) 
 = 0.1347    (WHEN MIN. R.F.=1)  AT K=   3, I=   2, J=  31


 TOTAL NUMBER OF POINT SOURCES/SINKS PRESENT IN THE FLOW MODEL =   240

 MAXIMUM STEPSIZE WHICH MEETS STABILITY CRITERION OF THE SINK & SOURCE TERM
 = 0.1000E+31(WHEN MIN. R.F.=1)  AT K=   0, I=   0, J=   0

 MAXIMUM STEPSIZE WHICH MEETS STABILITY CRITERION OF THE DISPERSION TERM
 = 0.7280E-02(WHEN MIN. R.F.=1)  AT K=   3, I=   2, J=  30
     1 CALLS TO GCG PACKAGE FOR TRANSPORT TIME STEP   6 IN FLOW TIME STEP  47 STRESS PERIOD   2
    15 TOTAL ITERATIONS
 
 SOLVING FOR HEAD 
 FLOW MODEL IS TRANSIENT
 FLOW MODEL CONTAINS CONSTANT-HEAD CELLS


 MAXIMUM STEPSIZE DURING WHICH ANY PARTICLE CANNOT MOVE MORE THAN ONE CELL
 = 0.1699    (WHEN MIN. R.F.=1)  AT K=   3, I=   2, J=  30

 MAXIMUM STEPSIZE WHICH MEETS STABILITY CRITERION OF THE ADVECTION TERM
 (FOR PURE FINITE-DIFFERENCE OPTION, MIXELM=0) 
 = 0.1347    (WHEN MIN. R.F.=1)  AT K=   3, I=   2, J=  31


 TOTAL NUMBER OF POINT SOURCES/SINKS PRESENT IN THE FLOW MODEL =   240

 MAXIMUM STEPSIZE WHICH MEETS STABILITY CRITERION OF THE SINK & SOURCE TERM
 = 0.1000E+31(WHEN MIN. R.F.=1)  AT K=   0, I=   0, J=   0

 MAXIMUM STEPSIZE WHICH MEETS STABILITY CRITERION OF THE DISPERSION TERM
 = 0.7280E-02(WHEN MIN. R.F.=1)  AT K=   3, I=   2, J=  30
     1 CALLS TO GCG PACKAGE FOR TRANSPORT TIME STEP   7 IN FLOW TIME STEP  47 STRESS PERIOD   2
    15 TOTAL ITERATIONS
 
 SOLVING FOR HEAD 
 FLOW MODEL IS TRANSIENT
 FLOW MODEL CONTAINS CONSTANT-HEAD CELLS


 MAXIMUM STEPSIZE DURING WHICH ANY PARTICLE CANNOT MOVE MORE THAN ONE CELL
 = 0.1699    (WHEN MIN. R.F.=1)  AT K=   3, I=   2, J=  30

 MAXIMUM STEPSIZE WHICH MEETS STABILITY CRITERION OF THE ADVECTION TERM
 (FOR PURE FINITE-DIFFERENCE OPTION, MIXELM=0) 
 = 0.1347    (WHEN MIN. R.F.=1)  AT K=   3, I=   2, J=  31


 TOTAL NUMBER OF POINT SOURCES/SINKS PRESENT IN THE FLOW MODEL =   240

 MAXIMUM STEPSIZE WHICH MEETS STABILITY CRITERION OF THE SINK & SOURCE TERM
 = 0.1000E+31(WHEN MIN. R.F.=1)  AT K=   0, I=   0, J=   0

 MAXIMUM STEPSIZE WHICH MEETS STABILITY CRITERION OF THE DISPERSION TERM
 = 0.7280E-02(WHEN MIN. R.F.=1)  AT K=   3, I=   2, J=  30
     1 CALLS TO GCG PACKAGE FOR TRANSPORT TIME STEP   8 IN FLOW TIME STEP  47 STRESS PERIOD   2
    14 TOTAL ITERATIONS
  MAXIMUM CONCENTRATION CHANGES FOR EACH ITERATION:
  MAX. CHANGE LAYER,ROW,COL MAX. CHANGE LAYER,ROW,COL MAX. CHANGE LAYER,ROW,COL MAX. CHANGE LAYER,ROW,COL MAX. CHANGE LAYER,ROW,COL
 ------------------------------------------------------------------------------------------------------------------------------------
   0.1107E-02 ( 13,  1, 59)  0.1707E-03 (  9,  1, 57)  0.4793E-04 (  5,  2, 62)  0.1832E-04 (  5,  2, 54)  0.7424E-05 (  4,  2, 53)
   0.4796E-05 (  3,  2, 31)  0.3257E-05 (  3,  2, 30)  0.2216E-05 (  3,  2, 29)  0.1400E-05 (  4,  2, 29)  0.7870E-06 (  3,  2, 29)
   0.4385E-06 (  3,  2, 30)  0.2287E-06 (  3,  3, 33)  0.1431E-06 (  4,  3, 31)  0.7940E-07 (  3,  3, 31)


                                          ================================================
                                                         FROM TIME =   48.000     TO    49.000    

 
 SOLVING FOR HEAD 
 FLOW MODEL IS TRANSIENT
 FLOW MODEL CONTAINS CONSTANT-HEAD CELLS


 MAXIMUM STEPSIZE DURING WHICH ANY PARTICLE CANNOT MOVE MORE THAN ONE CELL
 = 0.1699    (WHEN MIN. R.F.=1)  AT K=   3, I=   2, J=  30

 MAXIMUM STEPSIZE WHICH MEETS STABILITY CRITERION OF THE ADVECTION TERM
 (FOR PURE FINITE-DIFFERENCE OPTION, MIXELM=0) 
 = 0.1347    (WHEN MIN. R.F.=1)  AT K=   3, I=   2, J=  31


 TOTAL NUMBER OF POINT SOURCES/SINKS PRESENT IN THE FLOW MODEL =   240

 MAXIMUM STEPSIZE WHICH MEETS STABILITY CRITERION OF THE SINK & SOURCE TERM
 = 0.1000E+31(WHEN MIN. R.F.=1)  AT K=   0, I=   0, J=   0

 MAXIMUM STEPSIZE WHICH MEETS STABILITY CRITERION OF THE DISPERSION TERM
 = 0.7280E-02(WHEN MIN. R.F.=1)  AT K=   3, I=   2, J=  30


     1 CALLS TO GCG PACKAGE FOR TRANSPORT TIME STEP   1 IN FLOW TIME STEP  48 STRESS PERIOD   2
    15 TOTAL ITERATIONS

 NO OUTPUT CONTROL FOR STRESS PERIOD    2   TIME STEP  48
 
 SOLVING FOR HEAD 
 FLOW MODEL IS TRANSIENT
 FLOW MODEL CONTAINS CONSTANT-HEAD CELLS


 MAXIMUM STEPSIZE DURING WHICH ANY PARTICLE CANNOT MOVE MORE THAN ONE CELL
 = 0.1699    (WHEN MIN. R.F.=1)  AT K=   3, I=   2, J=  30

 MAXIMUM STEPSIZE WHICH MEETS STABILITY CRITERION OF THE ADVECTION TERM
 (FOR PURE FINITE-DIFFERENCE OPTION, MIXELM=0) 
 = 0.1347    (WHEN MIN. R.F.=1)  AT K=   3, I=   2, J=  31


 TOTAL NUMBER OF POINT SOURCES/SINKS PRESENT IN THE FLOW MODEL =   240

 MAXIMUM STEPSIZE WHICH MEETS STABILITY CRITERION OF THE SINK & SOURCE TERM
 = 0.1000E+31(WHEN MIN. R.F.=1)  AT K=   0, I=   0, J=   0

 MAXIMUM STEPSIZE WHICH MEETS STABILITY CRITERION OF THE DISPERSION TERM
 = 0.7280E-02(WHEN MIN. R.F.=1)  AT K=   3, I=   2, J=  30
     1 CALLS TO GCG PACKAGE FOR TRANSPORT TIME STEP   2 IN FLOW TIME STEP  48 STRESS PERIOD   2
    15 TOTAL ITERATIONS
 
 SOLVING FOR HEAD 
 FLOW MODEL IS TRANSIENT
 FLOW MODEL CONTAINS CONSTANT-HEAD CELLS


 MAXIMUM STEPSIZE DURING WHICH ANY PARTICLE CANNOT MOVE MORE THAN ONE CELL
 = 0.1699    (WHEN MIN. R.F.=1)  AT K=   3, I=   2, J=  30

 MAXIMUM STEPSIZE WHICH MEETS STABILITY CRITERION OF THE ADVECTION TERM
 (FOR PURE FINITE-DIFFERENCE OPTION, MIXELM=0) 
 = 0.1347    (WHEN MIN. R.F.=1)  AT K=   3, I=   2, J=  31


 TOTAL NUMBER OF POINT SOURCES/SINKS PRESENT IN THE FLOW MODEL =   240

 MAXIMUM STEPSIZE WHICH MEETS STABILITY CRITERION OF THE SINK & SOURCE TERM
 = 0.1000E+31(WHEN MIN. R.F.=1)  AT K=   0, I=   0, J=   0

 MAXIMUM STEPSIZE WHICH MEETS STABILITY CRITERION OF THE DISPERSION TERM
 = 0.7280E-02(WHEN MIN. R.F.=1)  AT K=   3, I=   2, J=  30
     1 CALLS TO GCG PACKAGE FOR TRANSPORT TIME STEP   3 IN FLOW TIME STEP  48 STRESS PERIOD   2
    15 TOTAL ITERATIONS
 
 SOLVING FOR HEAD 
 FLOW MODEL IS TRANSIENT
 FLOW MODEL CONTAINS CONSTANT-HEAD CELLS


 MAXIMUM STEPSIZE DURING WHICH ANY PARTICLE CANNOT MOVE MORE THAN ONE CELL
 = 0.1699    (WHEN MIN. R.F.=1)  AT K=   3, I=   2, J=  30

 MAXIMUM STEPSIZE WHICH MEETS STABILITY CRITERION OF THE ADVECTION TERM
 (FOR PURE FINITE-DIFFERENCE OPTION, MIXELM=0) 
 = 0.1347    (WHEN MIN. R.F.=1)  AT K=   3, I=   2, J=  31


 TOTAL NUMBER OF POINT SOURCES/SINKS PRESENT IN THE FLOW MODEL =   240

 MAXIMUM STEPSIZE WHICH MEETS STABILITY CRITERION OF THE SINK & SOURCE TERM
 = 0.1000E+31(WHEN MIN. R.F.=1)  AT K=   0, I=   0, J=   0

 MAXIMUM STEPSIZE WHICH MEETS STABILITY CRITERION OF THE DISPERSION TERM
 = 0.7280E-02(WHEN MIN. R.F.=1)  AT K=   3, I=   2, J=  30
     1 CALLS TO GCG PACKAGE FOR TRANSPORT TIME STEP   4 IN FLOW TIME STEP  48 STRESS PERIOD   2
    15 TOTAL ITERATIONS
 
 SOLVING FOR HEAD 
 FLOW MODEL IS TRANSIENT
 FLOW MODEL CONTAINS CONSTANT-HEAD CELLS


 MAXIMUM STEPSIZE DURING WHICH ANY PARTICLE CANNOT MOVE MORE THAN ONE CELL
 = 0.1699    (WHEN MIN. R.F.=1)  AT K=   3, I=   2, J=  30

 MAXIMUM STEPSIZE WHICH MEETS STABILITY CRITERION OF THE ADVECTION TERM
 (FOR PURE FINITE-DIFFERENCE OPTION, MIXELM=0) 
 = 0.1347    (WHEN MIN. R.F.=1)  AT K=   3, I=   2, J=  31


 TOTAL NUMBER OF POINT SOURCES/SINKS PRESENT IN THE FLOW MODEL =   240

 MAXIMUM STEPSIZE WHICH MEETS STABILITY CRITERION OF THE SINK & SOURCE TERM
 = 0.1000E+31(WHEN MIN. R.F.=1)  AT K=   0, I=   0, J=   0

 MAXIMUM STEPSIZE WHICH MEETS STABILITY CRITERION OF THE DISPERSION TERM
 = 0.7280E-02(WHEN MIN. R.F.=1)  AT K=   3, I=   2, J=  30
     1 CALLS TO GCG PACKAGE FOR TRANSPORT TIME STEP   5 IN FLOW TIME STEP  48 STRESS PERIOD   2
    15 TOTAL ITERATIONS
 
 SOLVING FOR HEAD 
 FLOW MODEL IS TRANSIENT
 FLOW MODEL CONTAINS CONSTANT-HEAD CELLS


 MAXIMUM STEPSIZE DURING WHICH ANY PARTICLE CANNOT MOVE MORE THAN ONE CELL
 = 0.1699    (WHEN MIN. R.F.=1)  AT K=   3, I=   2, J=  30

 MAXIMUM STEPSIZE WHICH MEETS STABILITY CRITERION OF THE ADVECTION TERM
 (FOR PURE FINITE-DIFFERENCE OPTION, MIXELM=0) 
 = 0.1347    (WHEN MIN. R.F.=1)  AT K=   3, I=   2, J=  31


 TOTAL NUMBER OF POINT SOURCES/SINKS PRESENT IN THE FLOW MODEL =   240

 MAXIMUM STEPSIZE WHICH MEETS STABILITY CRITERION OF THE SINK & SOURCE TERM
 = 0.1000E+31(WHEN MIN. R.F.=1)  AT K=   0, I=   0, J=   0

 MAXIMUM STEPSIZE WHICH MEETS STABILITY CRITERION OF THE DISPERSION TERM
 = 0.7280E-02(WHEN MIN. R.F.=1)  AT K=   3, I=   2, J=  30
     1 CALLS TO GCG PACKAGE FOR TRANSPORT TIME STEP   6 IN FLOW TIME STEP  48 STRESS PERIOD   2
    15 TOTAL ITERATIONS
 
 SOLVING FOR HEAD 
 FLOW MODEL IS TRANSIENT
 FLOW MODEL CONTAINS CONSTANT-HEAD CELLS


 MAXIMUM STEPSIZE DURING WHICH ANY PARTICLE CANNOT MOVE MORE THAN ONE CELL
 = 0.1699    (WHEN MIN. R.F.=1)  AT K=   3, I=   2, J=  30

 MAXIMUM STEPSIZE WHICH MEETS STABILITY CRITERION OF THE ADVECTION TERM
 (FOR PURE FINITE-DIFFERENCE OPTION, MIXELM=0) 
 = 0.1347    (WHEN MIN. R.F.=1)  AT K=   3, I=   2, J=  31


 TOTAL NUMBER OF POINT SOURCES/SINKS PRESENT IN THE FLOW MODEL =   240

 MAXIMUM STEPSIZE WHICH MEETS STABILITY CRITERION OF THE SINK & SOURCE TERM
 = 0.1000E+31(WHEN MIN. R.F.=1)  AT K=   0, I=   0, J=   0

 MAXIMUM STEPSIZE WHICH MEETS STABILITY CRITERION OF THE DISPERSION TERM
 = 0.7280E-02(WHEN MIN. R.F.=1)  AT K=   3, I=   2, J=  30
     1 CALLS TO GCG PACKAGE FOR TRANSPORT TIME STEP   7 IN FLOW TIME STEP  48 STRESS PERIOD   2
    15 TOTAL ITERATIONS
 
 SOLVING FOR HEAD 
 FLOW MODEL IS TRANSIENT
 FLOW MODEL CONTAINS CONSTANT-HEAD CELLS


 MAXIMUM STEPSIZE DURING WHICH ANY PARTICLE CANNOT MOVE MORE THAN ONE CELL
 = 0.1699    (WHEN MIN. R.F.=1)  AT K=   3, I=   2, J=  30

 MAXIMUM STEPSIZE WHICH MEETS STABILITY CRITERION OF THE ADVECTION TERM
 (FOR PURE FINITE-DIFFERENCE OPTION, MIXELM=0) 
 = 0.1347    (WHEN MIN. R.F.=1)  AT K=   3, I=   2, J=  31


 TOTAL NUMBER OF POINT SOURCES/SINKS PRESENT IN THE FLOW MODEL =   240

 MAXIMUM STEPSIZE WHICH MEETS STABILITY CRITERION OF THE SINK & SOURCE TERM
 = 0.1000E+31(WHEN MIN. R.F.=1)  AT K=   0, I=   0, J=   0

 MAXIMUM STEPSIZE WHICH MEETS STABILITY CRITERION OF THE DISPERSION TERM
 = 0.7280E-02(WHEN MIN. R.F.=1)  AT K=   3, I=   2, J=  30
     1 CALLS TO GCG PACKAGE FOR TRANSPORT TIME STEP   8 IN FLOW TIME STEP  48 STRESS PERIOD   2
    14 TOTAL ITERATIONS
  MAXIMUM CONCENTRATION CHANGES FOR EACH ITERATION:
  MAX. CHANGE LAYER,ROW,COL MAX. CHANGE LAYER,ROW,COL MAX. CHANGE LAYER,ROW,COL MAX. CHANGE LAYER,ROW,COL MAX. CHANGE LAYER,ROW,COL
 ------------------------------------------------------------------------------------------------------------------------------------
   0.1089E-02 ( 13,  1, 59)  0.1657E-03 (  9,  1, 57)  0.4618E-04 (  5,  2, 62)  0.1763E-04 (  8,  1, 59)  0.7123E-05 (  4,  2, 53)
   0.4540E-05 (  3,  2, 31)  0.3101E-05 (  3,  2, 30)  0.2107E-05 (  3,  2, 29)  0.1337E-05 (  4,  2, 29)  0.7500E-06 (  3,  2, 29)
   0.4187E-06 (  3,  2, 30)  0.2173E-06 (  3,  3, 33)  0.1362E-06 (  4,  3, 31)  0.7553E-07 (  3,  3, 31)


                                          ================================================
                                                         FROM TIME =   49.000     TO    50.000    

 
 SOLVING FOR HEAD 
 FLOW MODEL IS TRANSIENT
 FLOW MODEL CONTAINS CONSTANT-HEAD CELLS


 MAXIMUM STEPSIZE DURING WHICH ANY PARTICLE CANNOT MOVE MORE THAN ONE CELL
 = 0.1699    (WHEN MIN. R.F.=1)  AT K=   3, I=   2, J=  30

 MAXIMUM STEPSIZE WHICH MEETS STABILITY CRITERION OF THE ADVECTION TERM
 (FOR PURE FINITE-DIFFERENCE OPTION, MIXELM=0) 
 = 0.1347    (WHEN MIN. R.F.=1)  AT K=   3, I=   2, J=  31


 TOTAL NUMBER OF POINT SOURCES/SINKS PRESENT IN THE FLOW MODEL =   240

 MAXIMUM STEPSIZE WHICH MEETS STABILITY CRITERION OF THE SINK & SOURCE TERM
 = 0.1000E+31(WHEN MIN. R.F.=1)  AT K=   0, I=   0, J=   0

 MAXIMUM STEPSIZE WHICH MEETS STABILITY CRITERION OF THE DISPERSION TERM
 = 0.7280E-02(WHEN MIN. R.F.=1)  AT K=   3, I=   2, J=  30


     1 CALLS TO GCG PACKAGE FOR TRANSPORT TIME STEP   1 IN FLOW TIME STEP  49 STRESS PERIOD   2
    15 TOTAL ITERATIONS

 NO OUTPUT CONTROL FOR STRESS PERIOD    2   TIME STEP  49
 
 SOLVING FOR HEAD 
 FLOW MODEL IS TRANSIENT
 FLOW MODEL CONTAINS CONSTANT-HEAD CELLS


 MAXIMUM STEPSIZE DURING WHICH ANY PARTICLE CANNOT MOVE MORE THAN ONE CELL
 = 0.1699    (WHEN MIN. R.F.=1)  AT K=   3, I=   2, J=  30

 MAXIMUM STEPSIZE WHICH MEETS STABILITY CRITERION OF THE ADVECTION TERM
 (FOR PURE FINITE-DIFFERENCE OPTION, MIXELM=0) 
 = 0.1347    (WHEN MIN. R.F.=1)  AT K=   3, I=   2, J=  31


 TOTAL NUMBER OF POINT SOURCES/SINKS PRESENT IN THE FLOW MODEL =   240

 MAXIMUM STEPSIZE WHICH MEETS STABILITY CRITERION OF THE SINK & SOURCE TERM
 = 0.1000E+31(WHEN MIN. R.F.=1)  AT K=   0, I=   0, J=   0

 MAXIMUM STEPSIZE WHICH MEETS STABILITY CRITERION OF THE DISPERSION TERM
 = 0.7280E-02(WHEN MIN. R.F.=1)  AT K=   3, I=   2, J=  30
     1 CALLS TO GCG PACKAGE FOR TRANSPORT TIME STEP   2 IN FLOW TIME STEP  49 STRESS PERIOD   2
    15 TOTAL ITERATIONS
 
 SOLVING FOR HEAD 
 FLOW MODEL IS TRANSIENT
 FLOW MODEL CONTAINS CONSTANT-HEAD CELLS


 MAXIMUM STEPSIZE DURING WHICH ANY PARTICLE CANNOT MOVE MORE THAN ONE CELL
 = 0.1699    (WHEN MIN. R.F.=1)  AT K=   3, I=   2, J=  30

 MAXIMUM STEPSIZE WHICH MEETS STABILITY CRITERION OF THE ADVECTION TERM
 (FOR PURE FINITE-DIFFERENCE OPTION, MIXELM=0) 
 = 0.1347    (WHEN MIN. R.F.=1)  AT K=   3, I=   2, J=  31


 TOTAL NUMBER OF POINT SOURCES/SINKS PRESENT IN THE FLOW MODEL =   240

 MAXIMUM STEPSIZE WHICH MEETS STABILITY CRITERION OF THE SINK & SOURCE TERM
 = 0.1000E+31(WHEN MIN. R.F.=1)  AT K=   0, I=   0, J=   0

 MAXIMUM STEPSIZE WHICH MEETS STABILITY CRITERION OF THE DISPERSION TERM
 = 0.7280E-02(WHEN MIN. R.F.=1)  AT K=   3, I=   2, J=  30
     1 CALLS TO GCG PACKAGE FOR TRANSPORT TIME STEP   3 IN FLOW TIME STEP  49 STRESS PERIOD   2
    15 TOTAL ITERATIONS
 
 SOLVING FOR HEAD 
 FLOW MODEL IS TRANSIENT
 FLOW MODEL CONTAINS CONSTANT-HEAD CELLS


 MAXIMUM STEPSIZE DURING WHICH ANY PARTICLE CANNOT MOVE MORE THAN ONE CELL
 = 0.1699    (WHEN MIN. R.F.=1)  AT K=   3, I=   2, J=  30

 MAXIMUM STEPSIZE WHICH MEETS STABILITY CRITERION OF THE ADVECTION TERM
 (FOR PURE FINITE-DIFFERENCE OPTION, MIXELM=0) 
 = 0.1347    (WHEN MIN. R.F.=1)  AT K=   3, I=   2, J=  31


 TOTAL NUMBER OF POINT SOURCES/SINKS PRESENT IN THE FLOW MODEL =   240

 MAXIMUM STEPSIZE WHICH MEETS STABILITY CRITERION OF THE SINK & SOURCE TERM
 = 0.1000E+31(WHEN MIN. R.F.=1)  AT K=   0, I=   0, J=   0

 MAXIMUM STEPSIZE WHICH MEETS STABILITY CRITERION OF THE DISPERSION TERM
 = 0.7280E-02(WHEN MIN. R.F.=1)  AT K=   3, I=   2, J=  30
     1 CALLS TO GCG PACKAGE FOR TRANSPORT TIME STEP   4 IN FLOW TIME STEP  49 STRESS PERIOD   2
    15 TOTAL ITERATIONS
 
 SOLVING FOR HEAD 
 FLOW MODEL IS TRANSIENT
 FLOW MODEL CONTAINS CONSTANT-HEAD CELLS


 MAXIMUM STEPSIZE DURING WHICH ANY PARTICLE CANNOT MOVE MORE THAN ONE CELL
 = 0.1699    (WHEN MIN. R.F.=1)  AT K=   3, I=   2, J=  30

 MAXIMUM STEPSIZE WHICH MEETS STABILITY CRITERION OF THE ADVECTION TERM
 (FOR PURE FINITE-DIFFERENCE OPTION, MIXELM=0) 
 = 0.1347    (WHEN MIN. R.F.=1)  AT K=   3, I=   2, J=  31


 TOTAL NUMBER OF POINT SOURCES/SINKS PRESENT IN THE FLOW MODEL =   240

 MAXIMUM STEPSIZE WHICH MEETS STABILITY CRITERION OF THE SINK & SOURCE TERM
 = 0.1000E+31(WHEN MIN. R.F.=1)  AT K=   0, I=   0, J=   0

 MAXIMUM STEPSIZE WHICH MEETS STABILITY CRITERION OF THE DISPERSION TERM
 = 0.7280E-02(WHEN MIN. R.F.=1)  AT K=   3, I=   2, J=  30
     1 CALLS TO GCG PACKAGE FOR TRANSPORT TIME STEP   5 IN FLOW TIME STEP  49 STRESS PERIOD   2
    15 TOTAL ITERATIONS
 
 SOLVING FOR HEAD 
 FLOW MODEL IS TRANSIENT
 FLOW MODEL CONTAINS CONSTANT-HEAD CELLS


 MAXIMUM STEPSIZE DURING WHICH ANY PARTICLE CANNOT MOVE MORE THAN ONE CELL
 = 0.1699    (WHEN MIN. R.F.=1)  AT K=   3, I=   2, J=  30

 MAXIMUM STEPSIZE WHICH MEETS STABILITY CRITERION OF THE ADVECTION TERM
 (FOR PURE FINITE-DIFFERENCE OPTION, MIXELM=0) 
 = 0.1347    (WHEN MIN. R.F.=1)  AT K=   3, I=   2, J=  31


 TOTAL NUMBER OF POINT SOURCES/SINKS PRESENT IN THE FLOW MODEL =   240

 MAXIMUM STEPSIZE WHICH MEETS STABILITY CRITERION OF THE SINK & SOURCE TERM
 = 0.1000E+31(WHEN MIN. R.F.=1)  AT K=   0, I=   0, J=   0

 MAXIMUM STEPSIZE WHICH MEETS STABILITY CRITERION OF THE DISPERSION TERM
 = 0.7280E-02(WHEN MIN. R.F.=1)  AT K=   3, I=   2, J=  30
     1 CALLS TO GCG PACKAGE FOR TRANSPORT TIME STEP   6 IN FLOW TIME STEP  49 STRESS PERIOD   2
    15 TOTAL ITERATIONS
 
 SOLVING FOR HEAD 
 FLOW MODEL IS TRANSIENT
 FLOW MODEL CONTAINS CONSTANT-HEAD CELLS


 MAXIMUM STEPSIZE DURING WHICH ANY PARTICLE CANNOT MOVE MORE THAN ONE CELL
 = 0.1699    (WHEN MIN. R.F.=1)  AT K=   3, I=   2, J=  30

 MAXIMUM STEPSIZE WHICH MEETS STABILITY CRITERION OF THE ADVECTION TERM
 (FOR PURE FINITE-DIFFERENCE OPTION, MIXELM=0) 
 = 0.1347    (WHEN MIN. R.F.=1)  AT K=   3, I=   2, J=  31


 TOTAL NUMBER OF POINT SOURCES/SINKS PRESENT IN THE FLOW MODEL =   240

 MAXIMUM STEPSIZE WHICH MEETS STABILITY CRITERION OF THE SINK & SOURCE TERM
 = 0.1000E+31(WHEN MIN. R.F.=1)  AT K=   0, I=   0, J=   0

 MAXIMUM STEPSIZE WHICH MEETS STABILITY CRITERION OF THE DISPERSION TERM
 = 0.7280E-02(WHEN MIN. R.F.=1)  AT K=   3, I=   2, J=  30
     1 CALLS TO GCG PACKAGE FOR TRANSPORT TIME STEP   7 IN FLOW TIME STEP  49 STRESS PERIOD   2
    15 TOTAL ITERATIONS
 
 SOLVING FOR HEAD 
 FLOW MODEL IS TRANSIENT
 FLOW MODEL CONTAINS CONSTANT-HEAD CELLS


 MAXIMUM STEPSIZE DURING WHICH ANY PARTICLE CANNOT MOVE MORE THAN ONE CELL
 = 0.1699    (WHEN MIN. R.F.=1)  AT K=   3, I=   2, J=  30

 MAXIMUM STEPSIZE WHICH MEETS STABILITY CRITERION OF THE ADVECTION TERM
 (FOR PURE FINITE-DIFFERENCE OPTION, MIXELM=0) 
 = 0.1347    (WHEN MIN. R.F.=1)  AT K=   3, I=   2, J=  31


 TOTAL NUMBER OF POINT SOURCES/SINKS PRESENT IN THE FLOW MODEL =   240

 MAXIMUM STEPSIZE WHICH MEETS STABILITY CRITERION OF THE SINK & SOURCE TERM
 = 0.1000E+31(WHEN MIN. R.F.=1)  AT K=   0, I=   0, J=   0

 MAXIMUM STEPSIZE WHICH MEETS STABILITY CRITERION OF THE DISPERSION TERM
 = 0.7280E-02(WHEN MIN. R.F.=1)  AT K=   3, I=   2, J=  30
     1 CALLS TO GCG PACKAGE FOR TRANSPORT TIME STEP   8 IN FLOW TIME STEP  49 STRESS PERIOD   2
    14 TOTAL ITERATIONS
  MAXIMUM CONCENTRATION CHANGES FOR EACH ITERATION:
  MAX. CHANGE LAYER,ROW,COL MAX. CHANGE LAYER,ROW,COL MAX. CHANGE LAYER,ROW,COL MAX. CHANGE LAYER,ROW,COL MAX. CHANGE LAYER,ROW,COL
 ------------------------------------------------------------------------------------------------------------------------------------
   0.1072E-02 ( 13,  1, 59)  0.1608E-03 (  9,  1, 57)  0.4451E-04 (  5,  2, 62)  0.1707E-04 (  8,  1, 59)  0.6837E-05 (  4,  2, 53)
   0.4304E-05 (  3,  2, 31)  0.2955E-05 (  3,  2, 30)  0.2006E-05 (  3,  2, 29)  0.1278E-05 (  4,  2, 29)  0.7153E-06 (  3,  2, 29)
   0.3999E-06 (  3,  2, 30)  0.2067E-06 (  3,  2, 31)  0.1298E-06 (  4,  2, 31)  0.7187E-07 (  3,  3, 31)


                                          ================================================
                                                         FROM TIME =   50.000     TO    51.000    

 
 SOLVING FOR HEAD 
 FLOW MODEL IS TRANSIENT
 FLOW MODEL CONTAINS CONSTANT-HEAD CELLS


 MAXIMUM STEPSIZE DURING WHICH ANY PARTICLE CANNOT MOVE MORE THAN ONE CELL
 = 0.1699    (WHEN MIN. R.F.=1)  AT K=   3, I=   2, J=  30

 MAXIMUM STEPSIZE WHICH MEETS STABILITY CRITERION OF THE ADVECTION TERM
 (FOR PURE FINITE-DIFFERENCE OPTION, MIXELM=0) 
 = 0.1347    (WHEN MIN. R.F.=1)  AT K=   3, I=   2, J=  31


 TOTAL NUMBER OF POINT SOURCES/SINKS PRESENT IN THE FLOW MODEL =   240

 MAXIMUM STEPSIZE WHICH MEETS STABILITY CRITERION OF THE SINK & SOURCE TERM
 = 0.1000E+31(WHEN MIN. R.F.=1)  AT K=   0, I=   0, J=   0

 MAXIMUM STEPSIZE WHICH MEETS STABILITY CRITERION OF THE DISPERSION TERM
 = 0.7280E-02(WHEN MIN. R.F.=1)  AT K=   3, I=   2, J=  30


     1 CALLS TO GCG PACKAGE FOR TRANSPORT TIME STEP   1 IN FLOW TIME STEP  50 STRESS PERIOD   2
    15 TOTAL ITERATIONS

 NO OUTPUT CONTROL FOR STRESS PERIOD    2   TIME STEP  50
 
 SOLVING FOR HEAD 
 FLOW MODEL IS TRANSIENT
 FLOW MODEL CONTAINS CONSTANT-HEAD CELLS


 MAXIMUM STEPSIZE DURING WHICH ANY PARTICLE CANNOT MOVE MORE THAN ONE CELL
 = 0.1699    (WHEN MIN. R.F.=1)  AT K=   3, I=   2, J=  30

 MAXIMUM STEPSIZE WHICH MEETS STABILITY CRITERION OF THE ADVECTION TERM
 (FOR PURE FINITE-DIFFERENCE OPTION, MIXELM=0) 
 = 0.1347    (WHEN MIN. R.F.=1)  AT K=   3, I=   2, J=  31


 TOTAL NUMBER OF POINT SOURCES/SINKS PRESENT IN THE FLOW MODEL =   240

 MAXIMUM STEPSIZE WHICH MEETS STABILITY CRITERION OF THE SINK & SOURCE TERM
 = 0.1000E+31(WHEN MIN. R.F.=1)  AT K=   0, I=   0, J=   0

 MAXIMUM STEPSIZE WHICH MEETS STABILITY CRITERION OF THE DISPERSION TERM
 = 0.7279E-02(WHEN MIN. R.F.=1)  AT K=   3, I=   2, J=  30
     1 CALLS TO GCG PACKAGE FOR TRANSPORT TIME STEP   2 IN FLOW TIME STEP  50 STRESS PERIOD   2
    15 TOTAL ITERATIONS
 
 SOLVING FOR HEAD 
 FLOW MODEL IS TRANSIENT
 FLOW MODEL CONTAINS CONSTANT-HEAD CELLS


 MAXIMUM STEPSIZE DURING WHICH ANY PARTICLE CANNOT MOVE MORE THAN ONE CELL
 = 0.1699    (WHEN MIN. R.F.=1)  AT K=   3, I=   2, J=  30

 MAXIMUM STEPSIZE WHICH MEETS STABILITY CRITERION OF THE ADVECTION TERM
 (FOR PURE FINITE-DIFFERENCE OPTION, MIXELM=0) 
 = 0.1347    (WHEN MIN. R.F.=1)  AT K=   3, I=   2, J=  31


 TOTAL NUMBER OF POINT SOURCES/SINKS PRESENT IN THE FLOW MODEL =   240

 MAXIMUM STEPSIZE WHICH MEETS STABILITY CRITERION OF THE SINK & SOURCE TERM
 = 0.1000E+31(WHEN MIN. R.F.=1)  AT K=   0, I=   0, J=   0

 MAXIMUM STEPSIZE WHICH MEETS STABILITY CRITERION OF THE DISPERSION TERM
 = 0.7279E-02(WHEN MIN. R.F.=1)  AT K=   3, I=   2, J=  30
     1 CALLS TO GCG PACKAGE FOR TRANSPORT TIME STEP   3 IN FLOW TIME STEP  50 STRESS PERIOD   2
    15 TOTAL ITERATIONS
 
 SOLVING FOR HEAD 
 FLOW MODEL IS TRANSIENT
 FLOW MODEL CONTAINS CONSTANT-HEAD CELLS


 MAXIMUM STEPSIZE DURING WHICH ANY PARTICLE CANNOT MOVE MORE THAN ONE CELL
 = 0.1699    (WHEN MIN. R.F.=1)  AT K=   3, I=   2, J=  30

 MAXIMUM STEPSIZE WHICH MEETS STABILITY CRITERION OF THE ADVECTION TERM
 (FOR PURE FINITE-DIFFERENCE OPTION, MIXELM=0) 
 = 0.1347    (WHEN MIN. R.F.=1)  AT K=   3, I=   2, J=  31


 TOTAL NUMBER OF POINT SOURCES/SINKS PRESENT IN THE FLOW MODEL =   240

 MAXIMUM STEPSIZE WHICH MEETS STABILITY CRITERION OF THE SINK & SOURCE TERM
 = 0.1000E+31(WHEN MIN. R.F.=1)  AT K=   0, I=   0, J=   0

 MAXIMUM STEPSIZE WHICH MEETS STABILITY CRITERION OF THE DISPERSION TERM
 = 0.7279E-02(WHEN MIN. R.F.=1)  AT K=   3, I=   2, J=  30
     1 CALLS TO GCG PACKAGE FOR TRANSPORT TIME STEP   4 IN FLOW TIME STEP  50 STRESS PERIOD   2
    15 TOTAL ITERATIONS
 
 SOLVING FOR HEAD 
 FLOW MODEL IS TRANSIENT
 FLOW MODEL CONTAINS CONSTANT-HEAD CELLS


 MAXIMUM STEPSIZE DURING WHICH ANY PARTICLE CANNOT MOVE MORE THAN ONE CELL
 = 0.1699    (WHEN MIN. R.F.=1)  AT K=   3, I=   2, J=  30

 MAXIMUM STEPSIZE WHICH MEETS STABILITY CRITERION OF THE ADVECTION TERM
 (FOR PURE FINITE-DIFFERENCE OPTION, MIXELM=0) 
 = 0.1347    (WHEN MIN. R.F.=1)  AT K=   3, I=   2, J=  31


 TOTAL NUMBER OF POINT SOURCES/SINKS PRESENT IN THE FLOW MODEL =   240

 MAXIMUM STEPSIZE WHICH MEETS STABILITY CRITERION OF THE SINK & SOURCE TERM
 = 0.1000E+31(WHEN MIN. R.F.=1)  AT K=   0, I=   0, J=   0

 MAXIMUM STEPSIZE WHICH MEETS STABILITY CRITERION OF THE DISPERSION TERM
 = 0.7279E-02(WHEN MIN. R.F.=1)  AT K=   3, I=   2, J=  30
     1 CALLS TO GCG PACKAGE FOR TRANSPORT TIME STEP   5 IN FLOW TIME STEP  50 STRESS PERIOD   2
    15 TOTAL ITERATIONS
 
 SOLVING FOR HEAD 
 FLOW MODEL IS TRANSIENT
 FLOW MODEL CONTAINS CONSTANT-HEAD CELLS


 MAXIMUM STEPSIZE DURING WHICH ANY PARTICLE CANNOT MOVE MORE THAN ONE CELL
 = 0.1699    (WHEN MIN. R.F.=1)  AT K=   3, I=   2, J=  30

 MAXIMUM STEPSIZE WHICH MEETS STABILITY CRITERION OF THE ADVECTION TERM
 (FOR PURE FINITE-DIFFERENCE OPTION, MIXELM=0) 
 = 0.1347    (WHEN MIN. R.F.=1)  AT K=   3, I=   2, J=  31


 TOTAL NUMBER OF POINT SOURCES/SINKS PRESENT IN THE FLOW MODEL =   240

 MAXIMUM STEPSIZE WHICH MEETS STABILITY CRITERION OF THE SINK & SOURCE TERM
 = 0.1000E+31(WHEN MIN. R.F.=1)  AT K=   0, I=   0, J=   0

 MAXIMUM STEPSIZE WHICH MEETS STABILITY CRITERION OF THE DISPERSION TERM
 = 0.7279E-02(WHEN MIN. R.F.=1)  AT K=   3, I=   2, J=  30
     1 CALLS TO GCG PACKAGE FOR TRANSPORT TIME STEP   6 IN FLOW TIME STEP  50 STRESS PERIOD   2
    15 TOTAL ITERATIONS
 
 SOLVING FOR HEAD 
 FLOW MODEL IS TRANSIENT
 FLOW MODEL CONTAINS CONSTANT-HEAD CELLS


 MAXIMUM STEPSIZE DURING WHICH ANY PARTICLE CANNOT MOVE MORE THAN ONE CELL
 = 0.1699    (WHEN MIN. R.F.=1)  AT K=   3, I=   2, J=  30

 MAXIMUM STEPSIZE WHICH MEETS STABILITY CRITERION OF THE ADVECTION TERM
 (FOR PURE FINITE-DIFFERENCE OPTION, MIXELM=0) 
 = 0.1347    (WHEN MIN. R.F.=1)  AT K=   3, I=   2, J=  31


 TOTAL NUMBER OF POINT SOURCES/SINKS PRESENT IN THE FLOW MODEL =   240

 MAXIMUM STEPSIZE WHICH MEETS STABILITY CRITERION OF THE SINK & SOURCE TERM
 = 0.1000E+31(WHEN MIN. R.F.=1)  AT K=   0, I=   0, J=   0

 MAXIMUM STEPSIZE WHICH MEETS STABILITY CRITERION OF THE DISPERSION TERM
 = 0.7279E-02(WHEN MIN. R.F.=1)  AT K=   3, I=   2, J=  30
     1 CALLS TO GCG PACKAGE FOR TRANSPORT TIME STEP   7 IN FLOW TIME STEP  50 STRESS PERIOD   2
    15 TOTAL ITERATIONS
 
 SOLVING FOR HEAD 
 FLOW MODEL IS TRANSIENT
 FLOW MODEL CONTAINS CONSTANT-HEAD CELLS


 MAXIMUM STEPSIZE DURING WHICH ANY PARTICLE CANNOT MOVE MORE THAN ONE CELL
 = 0.1699    (WHEN MIN. R.F.=1)  AT K=   3, I=   2, J=  30

 MAXIMUM STEPSIZE WHICH MEETS STABILITY CRITERION OF THE ADVECTION TERM
 (FOR PURE FINITE-DIFFERENCE OPTION, MIXELM=0) 
 = 0.1347    (WHEN MIN. R.F.=1)  AT K=   3, I=   2, J=  31


 TOTAL NUMBER OF POINT SOURCES/SINKS PRESENT IN THE FLOW MODEL =   240

 MAXIMUM STEPSIZE WHICH MEETS STABILITY CRITERION OF THE SINK & SOURCE TERM
 = 0.1000E+31(WHEN MIN. R.F.=1)  AT K=   0, I=   0, J=   0

 MAXIMUM STEPSIZE WHICH MEETS STABILITY CRITERION OF THE DISPERSION TERM
 = 0.7279E-02(WHEN MIN. R.F.=1)  AT K=   3, I=   2, J=  30
     1 CALLS TO GCG PACKAGE FOR TRANSPORT TIME STEP   8 IN FLOW TIME STEP  50 STRESS PERIOD   2
    14 TOTAL ITERATIONS
  MAXIMUM CONCENTRATION CHANGES FOR EACH ITERATION:
  MAX. CHANGE LAYER,ROW,COL MAX. CHANGE LAYER,ROW,COL MAX. CHANGE LAYER,ROW,COL MAX. CHANGE LAYER,ROW,COL MAX. CHANGE LAYER,ROW,COL
 ------------------------------------------------------------------------------------------------------------------------------------
   0.1054E-02 ( 13,  1, 59)  0.1561E-03 (  9,  1, 57)  0.4292E-04 (  5,  2, 62)  0.1652E-04 (  8,  1, 59)  0.6565E-05 (  4,  2, 53)
   0.4087E-05 (  3,  2, 31)  0.2820E-05 (  3,  2, 30)  0.1913E-05 (  3,  2, 29)  0.1223E-05 (  4,  2, 29)  0.6828E-06 (  3,  2, 29)
   0.3821E-06 (  3,  2, 30)  0.1969E-06 (  3,  2, 31)  0.1237E-06 (  4,  2, 31)  0.6840E-07 (  3,  3, 31)


                                          ================================================
                                                         FROM TIME =   51.000     TO    52.000    

 
 SOLVING FOR HEAD 
 FLOW MODEL IS TRANSIENT
 FLOW MODEL CONTAINS CONSTANT-HEAD CELLS


 MAXIMUM STEPSIZE DURING WHICH ANY PARTICLE CANNOT MOVE MORE THAN ONE CELL
 = 0.1699    (WHEN MIN. R.F.=1)  AT K=   3, I=   2, J=  30

 MAXIMUM STEPSIZE WHICH MEETS STABILITY CRITERION OF THE ADVECTION TERM
 (FOR PURE FINITE-DIFFERENCE OPTION, MIXELM=0) 
 = 0.1347    (WHEN MIN. R.F.=1)  AT K=   3, I=   2, J=  31


 TOTAL NUMBER OF POINT SOURCES/SINKS PRESENT IN THE FLOW MODEL =   240

 MAXIMUM STEPSIZE WHICH MEETS STABILITY CRITERION OF THE SINK & SOURCE TERM
 = 0.1000E+31(WHEN MIN. R.F.=1)  AT K=   0, I=   0, J=   0

 MAXIMUM STEPSIZE WHICH MEETS STABILITY CRITERION OF THE DISPERSION TERM
 = 0.7279E-02(WHEN MIN. R.F.=1)  AT K=   3, I=   2, J=  30


     1 CALLS TO GCG PACKAGE FOR TRANSPORT TIME STEP   1 IN FLOW TIME STEP  51 STRESS PERIOD   2
    15 TOTAL ITERATIONS

 NO OUTPUT CONTROL FOR STRESS PERIOD    2   TIME STEP  51
 
 SOLVING FOR HEAD 
 FLOW MODEL IS TRANSIENT
 FLOW MODEL CONTAINS CONSTANT-HEAD CELLS


 MAXIMUM STEPSIZE DURING WHICH ANY PARTICLE CANNOT MOVE MORE THAN ONE CELL
 = 0.1699    (WHEN MIN. R.F.=1)  AT K=   3, I=   2, J=  30

 MAXIMUM STEPSIZE WHICH MEETS STABILITY CRITERION OF THE ADVECTION TERM
 (FOR PURE FINITE-DIFFERENCE OPTION, MIXELM=0) 
 = 0.1347    (WHEN MIN. R.F.=1)  AT K=   3, I=   2, J=  31


 TOTAL NUMBER OF POINT SOURCES/SINKS PRESENT IN THE FLOW MODEL =   240

 MAXIMUM STEPSIZE WHICH MEETS STABILITY CRITERION OF THE SINK & SOURCE TERM
 = 0.1000E+31(WHEN MIN. R.F.=1)  AT K=   0, I=   0, J=   0

 MAXIMUM STEPSIZE WHICH MEETS STABILITY CRITERION OF THE DISPERSION TERM
 = 0.7279E-02(WHEN MIN. R.F.=1)  AT K=   3, I=   2, J=  30
     1 CALLS TO GCG PACKAGE FOR TRANSPORT TIME STEP   2 IN FLOW TIME STEP  51 STRESS PERIOD   2
    15 TOTAL ITERATIONS
 
 SOLVING FOR HEAD 
 FLOW MODEL IS TRANSIENT
 FLOW MODEL CONTAINS CONSTANT-HEAD CELLS


 MAXIMUM STEPSIZE DURING WHICH ANY PARTICLE CANNOT MOVE MORE THAN ONE CELL
 = 0.1699    (WHEN MIN. R.F.=1)  AT K=   3, I=   2, J=  30

 MAXIMUM STEPSIZE WHICH MEETS STABILITY CRITERION OF THE ADVECTION TERM
 (FOR PURE FINITE-DIFFERENCE OPTION, MIXELM=0) 
 = 0.1347    (WHEN MIN. R.F.=1)  AT K=   3, I=   2, J=  31


 TOTAL NUMBER OF POINT SOURCES/SINKS PRESENT IN THE FLOW MODEL =   240

 MAXIMUM STEPSIZE WHICH MEETS STABILITY CRITERION OF THE SINK & SOURCE TERM
 = 0.1000E+31(WHEN MIN. R.F.=1)  AT K=   0, I=   0, J=   0

 MAXIMUM STEPSIZE WHICH MEETS STABILITY CRITERION OF THE DISPERSION TERM
 = 0.7279E-02(WHEN MIN. R.F.=1)  AT K=   3, I=   2, J=  30
     1 CALLS TO GCG PACKAGE FOR TRANSPORT TIME STEP   3 IN FLOW TIME STEP  51 STRESS PERIOD   2
    15 TOTAL ITERATIONS
 
 SOLVING FOR HEAD 
 FLOW MODEL IS TRANSIENT
 FLOW MODEL CONTAINS CONSTANT-HEAD CELLS


 MAXIMUM STEPSIZE DURING WHICH ANY PARTICLE CANNOT MOVE MORE THAN ONE CELL
 = 0.1699    (WHEN MIN. R.F.=1)  AT K=   3, I=   2, J=  30

 MAXIMUM STEPSIZE WHICH MEETS STABILITY CRITERION OF THE ADVECTION TERM
 (FOR PURE FINITE-DIFFERENCE OPTION, MIXELM=0) 
 = 0.1347    (WHEN MIN. R.F.=1)  AT K=   3, I=   2, J=  31


 TOTAL NUMBER OF POINT SOURCES/SINKS PRESENT IN THE FLOW MODEL =   240

 MAXIMUM STEPSIZE WHICH MEETS STABILITY CRITERION OF THE SINK & SOURCE TERM
 = 0.1000E+31(WHEN MIN. R.F.=1)  AT K=   0, I=   0, J=   0

 MAXIMUM STEPSIZE WHICH MEETS STABILITY CRITERION OF THE DISPERSION TERM
 = 0.7279E-02(WHEN MIN. R.F.=1)  AT K=   3, I=   2, J=  30
     1 CALLS TO GCG PACKAGE FOR TRANSPORT TIME STEP   4 IN FLOW TIME STEP  51 STRESS PERIOD   2
    15 TOTAL ITERATIONS
 
 SOLVING FOR HEAD 
 FLOW MODEL IS TRANSIENT
 FLOW MODEL CONTAINS CONSTANT-HEAD CELLS


 MAXIMUM STEPSIZE DURING WHICH ANY PARTICLE CANNOT MOVE MORE THAN ONE CELL
 = 0.1699    (WHEN MIN. R.F.=1)  AT K=   3, I=   2, J=  30

 MAXIMUM STEPSIZE WHICH MEETS STABILITY CRITERION OF THE ADVECTION TERM
 (FOR PURE FINITE-DIFFERENCE OPTION, MIXELM=0) 
 = 0.1347    (WHEN MIN. R.F.=1)  AT K=   3, I=   2, J=  31


 TOTAL NUMBER OF POINT SOURCES/SINKS PRESENT IN THE FLOW MODEL =   240

 MAXIMUM STEPSIZE WHICH MEETS STABILITY CRITERION OF THE SINK & SOURCE TERM
 = 0.1000E+31(WHEN MIN. R.F.=1)  AT K=   0, I=   0, J=   0

 MAXIMUM STEPSIZE WHICH MEETS STABILITY CRITERION OF THE DISPERSION TERM
 = 0.7279E-02(WHEN MIN. R.F.=1)  AT K=   3, I=   2, J=  30
     1 CALLS TO GCG PACKAGE FOR TRANSPORT TIME STEP   5 IN FLOW TIME STEP  51 STRESS PERIOD   2
    15 TOTAL ITERATIONS
 
 SOLVING FOR HEAD 
 FLOW MODEL IS TRANSIENT
 FLOW MODEL CONTAINS CONSTANT-HEAD CELLS


 MAXIMUM STEPSIZE DURING WHICH ANY PARTICLE CANNOT MOVE MORE THAN ONE CELL
 = 0.1699    (WHEN MIN. R.F.=1)  AT K=   3, I=   2, J=  30

 MAXIMUM STEPSIZE WHICH MEETS STABILITY CRITERION OF THE ADVECTION TERM
 (FOR PURE FINITE-DIFFERENCE OPTION, MIXELM=0) 
 = 0.1347    (WHEN MIN. R.F.=1)  AT K=   3, I=   2, J=  31


 TOTAL NUMBER OF POINT SOURCES/SINKS PRESENT IN THE FLOW MODEL =   240

 MAXIMUM STEPSIZE WHICH MEETS STABILITY CRITERION OF THE SINK & SOURCE TERM
 = 0.1000E+31(WHEN MIN. R.F.=1)  AT K=   0, I=   0, J=   0

 MAXIMUM STEPSIZE WHICH MEETS STABILITY CRITERION OF THE DISPERSION TERM
 = 0.7279E-02(WHEN MIN. R.F.=1)  AT K=   3, I=   2, J=  30
     1 CALLS TO GCG PACKAGE FOR TRANSPORT TIME STEP   6 IN FLOW TIME STEP  51 STRESS PERIOD   2
    15 TOTAL ITERATIONS
 
 SOLVING FOR HEAD 
 FLOW MODEL IS TRANSIENT
 FLOW MODEL CONTAINS CONSTANT-HEAD CELLS


 MAXIMUM STEPSIZE DURING WHICH ANY PARTICLE CANNOT MOVE MORE THAN ONE CELL
 = 0.1699    (WHEN MIN. R.F.=1)  AT K=   3, I=   2, J=  30

 MAXIMUM STEPSIZE WHICH MEETS STABILITY CRITERION OF THE ADVECTION TERM
 (FOR PURE FINITE-DIFFERENCE OPTION, MIXELM=0) 
 = 0.1347    (WHEN MIN. R.F.=1)  AT K=   3, I=   2, J=  31


 TOTAL NUMBER OF POINT SOURCES/SINKS PRESENT IN THE FLOW MODEL =   240

 MAXIMUM STEPSIZE WHICH MEETS STABILITY CRITERION OF THE SINK & SOURCE TERM
 = 0.1000E+31(WHEN MIN. R.F.=1)  AT K=   0, I=   0, J=   0

 MAXIMUM STEPSIZE WHICH MEETS STABILITY CRITERION OF THE DISPERSION TERM
 = 0.7279E-02(WHEN MIN. R.F.=1)  AT K=   3, I=   2, J=  30
     1 CALLS TO GCG PACKAGE FOR TRANSPORT TIME STEP   7 IN FLOW TIME STEP  51 STRESS PERIOD   2
    15 TOTAL ITERATIONS
 
 SOLVING FOR HEAD 
 FLOW MODEL IS TRANSIENT
 FLOW MODEL CONTAINS CONSTANT-HEAD CELLS


 MAXIMUM STEPSIZE DURING WHICH ANY PARTICLE CANNOT MOVE MORE THAN ONE CELL
 = 0.1699    (WHEN MIN. R.F.=1)  AT K=   3, I=   2, J=  30

 MAXIMUM STEPSIZE WHICH MEETS STABILITY CRITERION OF THE ADVECTION TERM
 (FOR PURE FINITE-DIFFERENCE OPTION, MIXELM=0) 
 = 0.1347    (WHEN MIN. R.F.=1)  AT K=   3, I=   2, J=  31


 TOTAL NUMBER OF POINT SOURCES/SINKS PRESENT IN THE FLOW MODEL =   240

 MAXIMUM STEPSIZE WHICH MEETS STABILITY CRITERION OF THE SINK & SOURCE TERM
 = 0.1000E+31(WHEN MIN. R.F.=1)  AT K=   0, I=   0, J=   0

 MAXIMUM STEPSIZE WHICH MEETS STABILITY CRITERION OF THE DISPERSION TERM
 = 0.7279E-02(WHEN MIN. R.F.=1)  AT K=   3, I=   2, J=  30
     1 CALLS TO GCG PACKAGE FOR TRANSPORT TIME STEP   8 IN FLOW TIME STEP  51 STRESS PERIOD   2
    14 TOTAL ITERATIONS
  MAXIMUM CONCENTRATION CHANGES FOR EACH ITERATION:
  MAX. CHANGE LAYER,ROW,COL MAX. CHANGE LAYER,ROW,COL MAX. CHANGE LAYER,ROW,COL MAX. CHANGE LAYER,ROW,COL MAX. CHANGE LAYER,ROW,COL
 ------------------------------------------------------------------------------------------------------------------------------------
   0.1037E-02 ( 13,  1, 59)  0.1515E-03 (  9,  1, 57)  0.4141E-04 (  5,  2, 62)  0.1599E-04 (  8,  1, 59)  0.6305E-05 (  4,  2, 53)
   0.3890E-05 (  3,  2, 31)  0.2697E-05 (  3,  2, 30)  0.1828E-05 (  3,  2, 29)  0.1172E-05 (  4,  2, 29)  0.6526E-06 (  3,  2, 29)
   0.3651E-06 (  3,  2, 30)  0.1876E-06 (  3,  2, 31)  0.1180E-06 (  4,  2, 31)  0.6511E-07 (  3,  3, 31)


                                          ================================================
                                                         FROM TIME =   52.000     TO    53.000    

 
 SOLVING FOR HEAD 
 FLOW MODEL IS TRANSIENT
 FLOW MODEL CONTAINS CONSTANT-HEAD CELLS


 MAXIMUM STEPSIZE DURING WHICH ANY PARTICLE CANNOT MOVE MORE THAN ONE CELL
 = 0.1699    (WHEN MIN. R.F.=1)  AT K=   3, I=   2, J=  30

 MAXIMUM STEPSIZE WHICH MEETS STABILITY CRITERION OF THE ADVECTION TERM
 (FOR PURE FINITE-DIFFERENCE OPTION, MIXELM=0) 
 = 0.1347    (WHEN MIN. R.F.=1)  AT K=   3, I=   2, J=  31


 TOTAL NUMBER OF POINT SOURCES/SINKS PRESENT IN THE FLOW MODEL =   240

 MAXIMUM STEPSIZE WHICH MEETS STABILITY CRITERION OF THE SINK & SOURCE TERM
 = 0.1000E+31(WHEN MIN. R.F.=1)  AT K=   0, I=   0, J=   0

 MAXIMUM STEPSIZE WHICH MEETS STABILITY CRITERION OF THE DISPERSION TERM
 = 0.7279E-02(WHEN MIN. R.F.=1)  AT K=   3, I=   2, J=  30


     1 CALLS TO GCG PACKAGE FOR TRANSPORT TIME STEP   1 IN FLOW TIME STEP  52 STRESS PERIOD   2
    15 TOTAL ITERATIONS

 NO OUTPUT CONTROL FOR STRESS PERIOD    2   TIME STEP  52
 
 SOLVING FOR HEAD 
 FLOW MODEL IS TRANSIENT
 FLOW MODEL CONTAINS CONSTANT-HEAD CELLS


 MAXIMUM STEPSIZE DURING WHICH ANY PARTICLE CANNOT MOVE MORE THAN ONE CELL
 = 0.1699    (WHEN MIN. R.F.=1)  AT K=   3, I=   2, J=  30

 MAXIMUM STEPSIZE WHICH MEETS STABILITY CRITERION OF THE ADVECTION TERM
 (FOR PURE FINITE-DIFFERENCE OPTION, MIXELM=0) 
 = 0.1347    (WHEN MIN. R.F.=1)  AT K=   3, I=   2, J=  31


 TOTAL NUMBER OF POINT SOURCES/SINKS PRESENT IN THE FLOW MODEL =   240

 MAXIMUM STEPSIZE WHICH MEETS STABILITY CRITERION OF THE SINK & SOURCE TERM
 = 0.1000E+31(WHEN MIN. R.F.=1)  AT K=   0, I=   0, J=   0

 MAXIMUM STEPSIZE WHICH MEETS STABILITY CRITERION OF THE DISPERSION TERM
 = 0.7279E-02(WHEN MIN. R.F.=1)  AT K=   3, I=   2, J=  30
     1 CALLS TO GCG PACKAGE FOR TRANSPORT TIME STEP   2 IN FLOW TIME STEP  52 STRESS PERIOD   2
    15 TOTAL ITERATIONS
 
 SOLVING FOR HEAD 
 FLOW MODEL IS TRANSIENT
 FLOW MODEL CONTAINS CONSTANT-HEAD CELLS


 MAXIMUM STEPSIZE DURING WHICH ANY PARTICLE CANNOT MOVE MORE THAN ONE CELL
 = 0.1699    (WHEN MIN. R.F.=1)  AT K=   3, I=   2, J=  30

 MAXIMUM STEPSIZE WHICH MEETS STABILITY CRITERION OF THE ADVECTION TERM
 (FOR PURE FINITE-DIFFERENCE OPTION, MIXELM=0) 
 = 0.1347    (WHEN MIN. R.F.=1)  AT K=   3, I=   2, J=  31


 TOTAL NUMBER OF POINT SOURCES/SINKS PRESENT IN THE FLOW MODEL =   240

 MAXIMUM STEPSIZE WHICH MEETS STABILITY CRITERION OF THE SINK & SOURCE TERM
 = 0.1000E+31(WHEN MIN. R.F.=1)  AT K=   0, I=   0, J=   0

 MAXIMUM STEPSIZE WHICH MEETS STABILITY CRITERION OF THE DISPERSION TERM
 = 0.7279E-02(WHEN MIN. R.F.=1)  AT K=   3, I=   2, J=  30
     1 CALLS TO GCG PACKAGE FOR TRANSPORT TIME STEP   3 IN FLOW TIME STEP  52 STRESS PERIOD   2
    15 TOTAL ITERATIONS
 
 SOLVING FOR HEAD 
 FLOW MODEL IS TRANSIENT
 FLOW MODEL CONTAINS CONSTANT-HEAD CELLS


 MAXIMUM STEPSIZE DURING WHICH ANY PARTICLE CANNOT MOVE MORE THAN ONE CELL
 = 0.1699    (WHEN MIN. R.F.=1)  AT K=   3, I=   2, J=  30

 MAXIMUM STEPSIZE WHICH MEETS STABILITY CRITERION OF THE ADVECTION TERM
 (FOR PURE FINITE-DIFFERENCE OPTION, MIXELM=0) 
 = 0.1347    (WHEN MIN. R.F.=1)  AT K=   3, I=   2, J=  31


 TOTAL NUMBER OF POINT SOURCES/SINKS PRESENT IN THE FLOW MODEL =   240

 MAXIMUM STEPSIZE WHICH MEETS STABILITY CRITERION OF THE SINK & SOURCE TERM
 = 0.1000E+31(WHEN MIN. R.F.=1)  AT K=   0, I=   0, J=   0

 MAXIMUM STEPSIZE WHICH MEETS STABILITY CRITERION OF THE DISPERSION TERM
 = 0.7279E-02(WHEN MIN. R.F.=1)  AT K=   3, I=   2, J=  30
     1 CALLS TO GCG PACKAGE FOR TRANSPORT TIME STEP   4 IN FLOW TIME STEP  52 STRESS PERIOD   2
    15 TOTAL ITERATIONS
 
 SOLVING FOR HEAD 
 FLOW MODEL IS TRANSIENT
 FLOW MODEL CONTAINS CONSTANT-HEAD CELLS


 MAXIMUM STEPSIZE DURING WHICH ANY PARTICLE CANNOT MOVE MORE THAN ONE CELL
 = 0.1699    (WHEN MIN. R.F.=1)  AT K=   3, I=   2, J=  30

 MAXIMUM STEPSIZE WHICH MEETS STABILITY CRITERION OF THE ADVECTION TERM
 (FOR PURE FINITE-DIFFERENCE OPTION, MIXELM=0) 
 = 0.1347    (WHEN MIN. R.F.=1)  AT K=   3, I=   2, J=  31


 TOTAL NUMBER OF POINT SOURCES/SINKS PRESENT IN THE FLOW MODEL =   240

 MAXIMUM STEPSIZE WHICH MEETS STABILITY CRITERION OF THE SINK & SOURCE TERM
 = 0.1000E+31(WHEN MIN. R.F.=1)  AT K=   0, I=   0, J=   0

 MAXIMUM STEPSIZE WHICH MEETS STABILITY CRITERION OF THE DISPERSION TERM
 = 0.7279E-02(WHEN MIN. R.F.=1)  AT K=   3, I=   2, J=  30
     1 CALLS TO GCG PACKAGE FOR TRANSPORT TIME STEP   5 IN FLOW TIME STEP  52 STRESS PERIOD   2
    15 TOTAL ITERATIONS
 
 SOLVING FOR HEAD 
 FLOW MODEL IS TRANSIENT
 FLOW MODEL CONTAINS CONSTANT-HEAD CELLS


 MAXIMUM STEPSIZE DURING WHICH ANY PARTICLE CANNOT MOVE MORE THAN ONE CELL
 = 0.1699    (WHEN MIN. R.F.=1)  AT K=   3, I=   2, J=  30

 MAXIMUM STEPSIZE WHICH MEETS STABILITY CRITERION OF THE ADVECTION TERM
 (FOR PURE FINITE-DIFFERENCE OPTION, MIXELM=0) 
 = 0.1347    (WHEN MIN. R.F.=1)  AT K=   3, I=   2, J=  31


 TOTAL NUMBER OF POINT SOURCES/SINKS PRESENT IN THE FLOW MODEL =   240

 MAXIMUM STEPSIZE WHICH MEETS STABILITY CRITERION OF THE SINK & SOURCE TERM
 = 0.1000E+31(WHEN MIN. R.F.=1)  AT K=   0, I=   0, J=   0

 MAXIMUM STEPSIZE WHICH MEETS STABILITY CRITERION OF THE DISPERSION TERM
 = 0.7279E-02(WHEN MIN. R.F.=1)  AT K=   3, I=   2, J=  30
     1 CALLS TO GCG PACKAGE FOR TRANSPORT TIME STEP   6 IN FLOW TIME STEP  52 STRESS PERIOD   2
    15 TOTAL ITERATIONS
 
 SOLVING FOR HEAD 
 FLOW MODEL IS TRANSIENT
 FLOW MODEL CONTAINS CONSTANT-HEAD CELLS


 MAXIMUM STEPSIZE DURING WHICH ANY PARTICLE CANNOT MOVE MORE THAN ONE CELL
 = 0.1699    (WHEN MIN. R.F.=1)  AT K=   3, I=   2, J=  30

 MAXIMUM STEPSIZE WHICH MEETS STABILITY CRITERION OF THE ADVECTION TERM
 (FOR PURE FINITE-DIFFERENCE OPTION, MIXELM=0) 
 = 0.1347    (WHEN MIN. R.F.=1)  AT K=   3, I=   2, J=  31


 TOTAL NUMBER OF POINT SOURCES/SINKS PRESENT IN THE FLOW MODEL =   240

 MAXIMUM STEPSIZE WHICH MEETS STABILITY CRITERION OF THE SINK & SOURCE TERM
 = 0.1000E+31(WHEN MIN. R.F.=1)  AT K=   0, I=   0, J=   0

 MAXIMUM STEPSIZE WHICH MEETS STABILITY CRITERION OF THE DISPERSION TERM
 = 0.7279E-02(WHEN MIN. R.F.=1)  AT K=   3, I=   2, J=  30
     1 CALLS TO GCG PACKAGE FOR TRANSPORT TIME STEP   7 IN FLOW TIME STEP  52 STRESS PERIOD   2
    15 TOTAL ITERATIONS
 
 SOLVING FOR HEAD 
 FLOW MODEL IS TRANSIENT
 FLOW MODEL CONTAINS CONSTANT-HEAD CELLS


 MAXIMUM STEPSIZE DURING WHICH ANY PARTICLE CANNOT MOVE MORE THAN ONE CELL
 = 0.1699    (WHEN MIN. R.F.=1)  AT K=   3, I=   2, J=  30

 MAXIMUM STEPSIZE WHICH MEETS STABILITY CRITERION OF THE ADVECTION TERM
 (FOR PURE FINITE-DIFFERENCE OPTION, MIXELM=0) 
 = 0.1347    (WHEN MIN. R.F.=1)  AT K=   3, I=   2, J=  31


 TOTAL NUMBER OF POINT SOURCES/SINKS PRESENT IN THE FLOW MODEL =   240

 MAXIMUM STEPSIZE WHICH MEETS STABILITY CRITERION OF THE SINK & SOURCE TERM
 = 0.1000E+31(WHEN MIN. R.F.=1)  AT K=   0, I=   0, J=   0

 MAXIMUM STEPSIZE WHICH MEETS STABILITY CRITERION OF THE DISPERSION TERM
 = 0.7279E-02(WHEN MIN. R.F.=1)  AT K=   3, I=   2, J=  30
     1 CALLS TO GCG PACKAGE FOR TRANSPORT TIME STEP   8 IN FLOW TIME STEP  52 STRESS PERIOD   2
    14 TOTAL ITERATIONS
  MAXIMUM CONCENTRATION CHANGES FOR EACH ITERATION:
  MAX. CHANGE LAYER,ROW,COL MAX. CHANGE LAYER,ROW,COL MAX. CHANGE LAYER,ROW,COL MAX. CHANGE LAYER,ROW,COL MAX. CHANGE LAYER,ROW,COL
 ------------------------------------------------------------------------------------------------------------------------------------
   0.1019E-02 ( 13,  1, 59)  0.1470E-03 (  9,  1, 57)  0.3997E-04 (  5,  2, 62)  0.1547E-04 (  8,  1, 59)  0.6055E-05 (  4,  2, 53)
   0.3710E-05 (  3,  2, 31)  0.2583E-05 (  3,  2, 30)  0.1750E-05 (  3,  2, 29)  0.1124E-05 (  4,  2, 29)  0.6244E-06 (  3,  2, 29)
   0.3490E-06 (  3,  2, 30)  0.1788E-06 (  3,  2, 31)  0.1125E-06 (  4,  2, 31)  0.6201E-07 (  3,  3, 31)


                                          ================================================
                                                         FROM TIME =   53.000     TO    54.000    

 
 SOLVING FOR HEAD 
 FLOW MODEL IS TRANSIENT
 FLOW MODEL CONTAINS CONSTANT-HEAD CELLS


 MAXIMUM STEPSIZE DURING WHICH ANY PARTICLE CANNOT MOVE MORE THAN ONE CELL
 = 0.1699    (WHEN MIN. R.F.=1)  AT K=   3, I=   2, J=  30

 MAXIMUM STEPSIZE WHICH MEETS STABILITY CRITERION OF THE ADVECTION TERM
 (FOR PURE FINITE-DIFFERENCE OPTION, MIXELM=0) 
 = 0.1347    (WHEN MIN. R.F.=1)  AT K=   3, I=   2, J=  31


 TOTAL NUMBER OF POINT SOURCES/SINKS PRESENT IN THE FLOW MODEL =   240

 MAXIMUM STEPSIZE WHICH MEETS STABILITY CRITERION OF THE SINK & SOURCE TERM
 = 0.1000E+31(WHEN MIN. R.F.=1)  AT K=   0, I=   0, J=   0

 MAXIMUM STEPSIZE WHICH MEETS STABILITY CRITERION OF THE DISPERSION TERM
 = 0.7279E-02(WHEN MIN. R.F.=1)  AT K=   3, I=   2, J=  30


     1 CALLS TO GCG PACKAGE FOR TRANSPORT TIME STEP   1 IN FLOW TIME STEP  53 STRESS PERIOD   2
    15 TOTAL ITERATIONS

 NO OUTPUT CONTROL FOR STRESS PERIOD    2   TIME STEP  53
 
 SOLVING FOR HEAD 
 FLOW MODEL IS TRANSIENT
 FLOW MODEL CONTAINS CONSTANT-HEAD CELLS


 MAXIMUM STEPSIZE DURING WHICH ANY PARTICLE CANNOT MOVE MORE THAN ONE CELL
 = 0.1699    (WHEN MIN. R.F.=1)  AT K=   3, I=   2, J=  30

 MAXIMUM STEPSIZE WHICH MEETS STABILITY CRITERION OF THE ADVECTION TERM
 (FOR PURE FINITE-DIFFERENCE OPTION, MIXELM=0) 
 = 0.1347    (WHEN MIN. R.F.=1)  AT K=   3, I=   2, J=  31


 TOTAL NUMBER OF POINT SOURCES/SINKS PRESENT IN THE FLOW MODEL =   240

 MAXIMUM STEPSIZE WHICH MEETS STABILITY CRITERION OF THE SINK & SOURCE TERM
 = 0.1000E+31(WHEN MIN. R.F.=1)  AT K=   0, I=   0, J=   0

 MAXIMUM STEPSIZE WHICH MEETS STABILITY CRITERION OF THE DISPERSION TERM
 = 0.7279E-02(WHEN MIN. R.F.=1)  AT K=   3, I=   2, J=  30
     1 CALLS TO GCG PACKAGE FOR TRANSPORT TIME STEP   2 IN FLOW TIME STEP  53 STRESS PERIOD   2
    15 TOTAL ITERATIONS
 
 SOLVING FOR HEAD 
 FLOW MODEL IS TRANSIENT
 FLOW MODEL CONTAINS CONSTANT-HEAD CELLS


 MAXIMUM STEPSIZE DURING WHICH ANY PARTICLE CANNOT MOVE MORE THAN ONE CELL
 = 0.1699    (WHEN MIN. R.F.=1)  AT K=   3, I=   2, J=  30

 MAXIMUM STEPSIZE WHICH MEETS STABILITY CRITERION OF THE ADVECTION TERM
 (FOR PURE FINITE-DIFFERENCE OPTION, MIXELM=0) 
 = 0.1347    (WHEN MIN. R.F.=1)  AT K=   3, I=   2, J=  31


 TOTAL NUMBER OF POINT SOURCES/SINKS PRESENT IN THE FLOW MODEL =   240

 MAXIMUM STEPSIZE WHICH MEETS STABILITY CRITERION OF THE SINK & SOURCE TERM
 = 0.1000E+31(WHEN MIN. R.F.=1)  AT K=   0, I=   0, J=   0

 MAXIMUM STEPSIZE WHICH MEETS STABILITY CRITERION OF THE DISPERSION TERM
 = 0.7279E-02(WHEN MIN. R.F.=1)  AT K=   3, I=   2, J=  30
     1 CALLS TO GCG PACKAGE FOR TRANSPORT TIME STEP   3 IN FLOW TIME STEP  53 STRESS PERIOD   2
    15 TOTAL ITERATIONS
 
 SOLVING FOR HEAD 
 FLOW MODEL IS TRANSIENT
 FLOW MODEL CONTAINS CONSTANT-HEAD CELLS


 MAXIMUM STEPSIZE DURING WHICH ANY PARTICLE CANNOT MOVE MORE THAN ONE CELL
 = 0.1699    (WHEN MIN. R.F.=1)  AT K=   3, I=   2, J=  30

 MAXIMUM STEPSIZE WHICH MEETS STABILITY CRITERION OF THE ADVECTION TERM
 (FOR PURE FINITE-DIFFERENCE OPTION, MIXELM=0) 
 = 0.1347    (WHEN MIN. R.F.=1)  AT K=   3, I=   2, J=  31


 TOTAL NUMBER OF POINT SOURCES/SINKS PRESENT IN THE FLOW MODEL =   240

 MAXIMUM STEPSIZE WHICH MEETS STABILITY CRITERION OF THE SINK & SOURCE TERM
 = 0.1000E+31(WHEN MIN. R.F.=1)  AT K=   0, I=   0, J=   0

 MAXIMUM STEPSIZE WHICH MEETS STABILITY CRITERION OF THE DISPERSION TERM
 = 0.7279E-02(WHEN MIN. R.F.=1)  AT K=   3, I=   2, J=  30
     1 CALLS TO GCG PACKAGE FOR TRANSPORT TIME STEP   4 IN FLOW TIME STEP  53 STRESS PERIOD   2
    15 TOTAL ITERATIONS
 
 SOLVING FOR HEAD 
 FLOW MODEL IS TRANSIENT
 FLOW MODEL CONTAINS CONSTANT-HEAD CELLS


 MAXIMUM STEPSIZE DURING WHICH ANY PARTICLE CANNOT MOVE MORE THAN ONE CELL
 = 0.1699    (WHEN MIN. R.F.=1)  AT K=   3, I=   2, J=  30

 MAXIMUM STEPSIZE WHICH MEETS STABILITY CRITERION OF THE ADVECTION TERM
 (FOR PURE FINITE-DIFFERENCE OPTION, MIXELM=0) 
 = 0.1347    (WHEN MIN. R.F.=1)  AT K=   3, I=   2, J=  31


 TOTAL NUMBER OF POINT SOURCES/SINKS PRESENT IN THE FLOW MODEL =   240

 MAXIMUM STEPSIZE WHICH MEETS STABILITY CRITERION OF THE SINK & SOURCE TERM
 = 0.1000E+31(WHEN MIN. R.F.=1)  AT K=   0, I=   0, J=   0

 MAXIMUM STEPSIZE WHICH MEETS STABILITY CRITERION OF THE DISPERSION TERM
 = 0.7279E-02(WHEN MIN. R.F.=1)  AT K=   3, I=   2, J=  30
     1 CALLS TO GCG PACKAGE FOR TRANSPORT TIME STEP   5 IN FLOW TIME STEP  53 STRESS PERIOD   2
    15 TOTAL ITERATIONS
 
 SOLVING FOR HEAD 
 FLOW MODEL IS TRANSIENT
 FLOW MODEL CONTAINS CONSTANT-HEAD CELLS


 MAXIMUM STEPSIZE DURING WHICH ANY PARTICLE CANNOT MOVE MORE THAN ONE CELL
 = 0.1699    (WHEN MIN. R.F.=1)  AT K=   3, I=   2, J=  30

 MAXIMUM STEPSIZE WHICH MEETS STABILITY CRITERION OF THE ADVECTION TERM
 (FOR PURE FINITE-DIFFERENCE OPTION, MIXELM=0) 
 = 0.1347    (WHEN MIN. R.F.=1)  AT K=   3, I=   2, J=  31


 TOTAL NUMBER OF POINT SOURCES/SINKS PRESENT IN THE FLOW MODEL =   240

 MAXIMUM STEPSIZE WHICH MEETS STABILITY CRITERION OF THE SINK & SOURCE TERM
 = 0.1000E+31(WHEN MIN. R.F.=1)  AT K=   0, I=   0, J=   0

 MAXIMUM STEPSIZE WHICH MEETS STABILITY CRITERION OF THE DISPERSION TERM
 = 0.7279E-02(WHEN MIN. R.F.=1)  AT K=   3, I=   2, J=  30
     1 CALLS TO GCG PACKAGE FOR TRANSPORT TIME STEP   6 IN FLOW TIME STEP  53 STRESS PERIOD   2
    15 TOTAL ITERATIONS
 
 SOLVING FOR HEAD 
 FLOW MODEL IS TRANSIENT
 FLOW MODEL CONTAINS CONSTANT-HEAD CELLS


 MAXIMUM STEPSIZE DURING WHICH ANY PARTICLE CANNOT MOVE MORE THAN ONE CELL
 = 0.1699    (WHEN MIN. R.F.=1)  AT K=   3, I=   2, J=  30

 MAXIMUM STEPSIZE WHICH MEETS STABILITY CRITERION OF THE ADVECTION TERM
 (FOR PURE FINITE-DIFFERENCE OPTION, MIXELM=0) 
 = 0.1347    (WHEN MIN. R.F.=1)  AT K=   3, I=   2, J=  31


 TOTAL NUMBER OF POINT SOURCES/SINKS PRESENT IN THE FLOW MODEL =   240

 MAXIMUM STEPSIZE WHICH MEETS STABILITY CRITERION OF THE SINK & SOURCE TERM
 = 0.1000E+31(WHEN MIN. R.F.=1)  AT K=   0, I=   0, J=   0

 MAXIMUM STEPSIZE WHICH MEETS STABILITY CRITERION OF THE DISPERSION TERM
 = 0.7279E-02(WHEN MIN. R.F.=1)  AT K=   3, I=   2, J=  30
     1 CALLS TO GCG PACKAGE FOR TRANSPORT TIME STEP   7 IN FLOW TIME STEP  53 STRESS PERIOD   2
    15 TOTAL ITERATIONS
 
 SOLVING FOR HEAD 
 FLOW MODEL IS TRANSIENT
 FLOW MODEL CONTAINS CONSTANT-HEAD CELLS


 MAXIMUM STEPSIZE DURING WHICH ANY PARTICLE CANNOT MOVE MORE THAN ONE CELL
 = 0.1699    (WHEN MIN. R.F.=1)  AT K=   3, I=   2, J=  30

 MAXIMUM STEPSIZE WHICH MEETS STABILITY CRITERION OF THE ADVECTION TERM
 (FOR PURE FINITE-DIFFERENCE OPTION, MIXELM=0) 
 = 0.1347    (WHEN MIN. R.F.=1)  AT K=   3, I=   2, J=  31


 TOTAL NUMBER OF POINT SOURCES/SINKS PRESENT IN THE FLOW MODEL =   240

 MAXIMUM STEPSIZE WHICH MEETS STABILITY CRITERION OF THE SINK & SOURCE TERM
 = 0.1000E+31(WHEN MIN. R.F.=1)  AT K=   0, I=   0, J=   0

 MAXIMUM STEPSIZE WHICH MEETS STABILITY CRITERION OF THE DISPERSION TERM
 = 0.7279E-02(WHEN MIN. R.F.=1)  AT K=   3, I=   2, J=  30
     1 CALLS TO GCG PACKAGE FOR TRANSPORT TIME STEP   8 IN FLOW TIME STEP  53 STRESS PERIOD   2
    14 TOTAL ITERATIONS
  MAXIMUM CONCENTRATION CHANGES FOR EACH ITERATION:
  MAX. CHANGE LAYER,ROW,COL MAX. CHANGE LAYER,ROW,COL MAX. CHANGE LAYER,ROW,COL MAX. CHANGE LAYER,ROW,COL MAX. CHANGE LAYER,ROW,COL
 ------------------------------------------------------------------------------------------------------------------------------------
   0.1000E-02 ( 13,  1, 59)  0.1427E-03 (  9,  1, 57)  0.3860E-04 (  5,  2, 62)  0.1498E-04 (  8,  1, 59)  0.5816E-05 (  4,  2, 53)
   0.3545E-05 (  3,  2, 31)  0.2477E-05 (  3,  2, 30)  0.1678E-05 (  3,  2, 29)  0.1080E-05 (  4,  2, 29)  0.5980E-06 (  3,  2, 29)
   0.3338E-06 (  3,  2, 30)  0.1706E-06 (  3,  2, 31)  0.1073E-06 (  4,  2, 31)  0.5909E-07 (  3,  3, 31)


                                          ================================================
                                                         FROM TIME =   54.000     TO    55.000    

 
 SOLVING FOR HEAD 
 FLOW MODEL IS TRANSIENT
 FLOW MODEL CONTAINS CONSTANT-HEAD CELLS


 MAXIMUM STEPSIZE DURING WHICH ANY PARTICLE CANNOT MOVE MORE THAN ONE CELL
 = 0.1699    (WHEN MIN. R.F.=1)  AT K=   3, I=   2, J=  30

 MAXIMUM STEPSIZE WHICH MEETS STABILITY CRITERION OF THE ADVECTION TERM
 (FOR PURE FINITE-DIFFERENCE OPTION, MIXELM=0) 
 = 0.1347    (WHEN MIN. R.F.=1)  AT K=   3, I=   2, J=  31


 TOTAL NUMBER OF POINT SOURCES/SINKS PRESENT IN THE FLOW MODEL =   240

 MAXIMUM STEPSIZE WHICH MEETS STABILITY CRITERION OF THE SINK & SOURCE TERM
 = 0.1000E+31(WHEN MIN. R.F.=1)  AT K=   0, I=   0, J=   0

 MAXIMUM STEPSIZE WHICH MEETS STABILITY CRITERION OF THE DISPERSION TERM
 = 0.7279E-02(WHEN MIN. R.F.=1)  AT K=   3, I=   2, J=  30


     1 CALLS TO GCG PACKAGE FOR TRANSPORT TIME STEP   1 IN FLOW TIME STEP  54 STRESS PERIOD   2
    15 TOTAL ITERATIONS

 NO OUTPUT CONTROL FOR STRESS PERIOD    2   TIME STEP  54
 
 SOLVING FOR HEAD 
 FLOW MODEL IS TRANSIENT
 FLOW MODEL CONTAINS CONSTANT-HEAD CELLS


 MAXIMUM STEPSIZE DURING WHICH ANY PARTICLE CANNOT MOVE MORE THAN ONE CELL
 = 0.1699    (WHEN MIN. R.F.=1)  AT K=   3, I=   2, J=  30

 MAXIMUM STEPSIZE WHICH MEETS STABILITY CRITERION OF THE ADVECTION TERM
 (FOR PURE FINITE-DIFFERENCE OPTION, MIXELM=0) 
 = 0.1347    (WHEN MIN. R.F.=1)  AT K=   3, I=   2, J=  31


 TOTAL NUMBER OF POINT SOURCES/SINKS PRESENT IN THE FLOW MODEL =   240

 MAXIMUM STEPSIZE WHICH MEETS STABILITY CRITERION OF THE SINK & SOURCE TERM
 = 0.1000E+31(WHEN MIN. R.F.=1)  AT K=   0, I=   0, J=   0

 MAXIMUM STEPSIZE WHICH MEETS STABILITY CRITERION OF THE DISPERSION TERM
 = 0.7279E-02(WHEN MIN. R.F.=1)  AT K=   3, I=   2, J=  30
     1 CALLS TO GCG PACKAGE FOR TRANSPORT TIME STEP   2 IN FLOW TIME STEP  54 STRESS PERIOD   2
    15 TOTAL ITERATIONS
 
 SOLVING FOR HEAD 
 FLOW MODEL IS TRANSIENT
 FLOW MODEL CONTAINS CONSTANT-HEAD CELLS


 MAXIMUM STEPSIZE DURING WHICH ANY PARTICLE CANNOT MOVE MORE THAN ONE CELL
 = 0.1699    (WHEN MIN. R.F.=1)  AT K=   3, I=   2, J=  30

 MAXIMUM STEPSIZE WHICH MEETS STABILITY CRITERION OF THE ADVECTION TERM
 (FOR PURE FINITE-DIFFERENCE OPTION, MIXELM=0) 
 = 0.1347    (WHEN MIN. R.F.=1)  AT K=   3, I=   2, J=  31


 TOTAL NUMBER OF POINT SOURCES/SINKS PRESENT IN THE FLOW MODEL =   240

 MAXIMUM STEPSIZE WHICH MEETS STABILITY CRITERION OF THE SINK & SOURCE TERM
 = 0.1000E+31(WHEN MIN. R.F.=1)  AT K=   0, I=   0, J=   0

 MAXIMUM STEPSIZE WHICH MEETS STABILITY CRITERION OF THE DISPERSION TERM
 = 0.7279E-02(WHEN MIN. R.F.=1)  AT K=   3, I=   2, J=  30
     1 CALLS TO GCG PACKAGE FOR TRANSPORT TIME STEP   3 IN FLOW TIME STEP  54 STRESS PERIOD   2
    15 TOTAL ITERATIONS
 
 SOLVING FOR HEAD 
 FLOW MODEL IS TRANSIENT
 FLOW MODEL CONTAINS CONSTANT-HEAD CELLS


 MAXIMUM STEPSIZE DURING WHICH ANY PARTICLE CANNOT MOVE MORE THAN ONE CELL
 = 0.1699    (WHEN MIN. R.F.=1)  AT K=   3, I=   2, J=  30

 MAXIMUM STEPSIZE WHICH MEETS STABILITY CRITERION OF THE ADVECTION TERM
 (FOR PURE FINITE-DIFFERENCE OPTION, MIXELM=0) 
 = 0.1347    (WHEN MIN. R.F.=1)  AT K=   3, I=   2, J=  31


 TOTAL NUMBER OF POINT SOURCES/SINKS PRESENT IN THE FLOW MODEL =   240

 MAXIMUM STEPSIZE WHICH MEETS STABILITY CRITERION OF THE SINK & SOURCE TERM
 = 0.1000E+31(WHEN MIN. R.F.=1)  AT K=   0, I=   0, J=   0

 MAXIMUM STEPSIZE WHICH MEETS STABILITY CRITERION OF THE DISPERSION TERM
 = 0.7279E-02(WHEN MIN. R.F.=1)  AT K=   3, I=   2, J=  30
     1 CALLS TO GCG PACKAGE FOR TRANSPORT TIME STEP   4 IN FLOW TIME STEP  54 STRESS PERIOD   2
    15 TOTAL ITERATIONS
 
 SOLVING FOR HEAD 
 FLOW MODEL IS TRANSIENT
 FLOW MODEL CONTAINS CONSTANT-HEAD CELLS


 MAXIMUM STEPSIZE DURING WHICH ANY PARTICLE CANNOT MOVE MORE THAN ONE CELL
 = 0.1699    (WHEN MIN. R.F.=1)  AT K=   3, I=   2, J=  30

 MAXIMUM STEPSIZE WHICH MEETS STABILITY CRITERION OF THE ADVECTION TERM
 (FOR PURE FINITE-DIFFERENCE OPTION, MIXELM=0) 
 = 0.1347    (WHEN MIN. R.F.=1)  AT K=   3, I=   2, J=  31


 TOTAL NUMBER OF POINT SOURCES/SINKS PRESENT IN THE FLOW MODEL =   240

 MAXIMUM STEPSIZE WHICH MEETS STABILITY CRITERION OF THE SINK & SOURCE TERM
 = 0.1000E+31(WHEN MIN. R.F.=1)  AT K=   0, I=   0, J=   0

 MAXIMUM STEPSIZE WHICH MEETS STABILITY CRITERION OF THE DISPERSION TERM
 = 0.7279E-02(WHEN MIN. R.F.=1)  AT K=   3, I=   2, J=  30
     1 CALLS TO GCG PACKAGE FOR TRANSPORT TIME STEP   5 IN FLOW TIME STEP  54 STRESS PERIOD   2
    15 TOTAL ITERATIONS
 
 SOLVING FOR HEAD 
 FLOW MODEL IS TRANSIENT
 FLOW MODEL CONTAINS CONSTANT-HEAD CELLS


 MAXIMUM STEPSIZE DURING WHICH ANY PARTICLE CANNOT MOVE MORE THAN ONE CELL
 = 0.1699    (WHEN MIN. R.F.=1)  AT K=   3, I=   2, J=  30

 MAXIMUM STEPSIZE WHICH MEETS STABILITY CRITERION OF THE ADVECTION TERM
 (FOR PURE FINITE-DIFFERENCE OPTION, MIXELM=0) 
 = 0.1347    (WHEN MIN. R.F.=1)  AT K=   3, I=   2, J=  31


 TOTAL NUMBER OF POINT SOURCES/SINKS PRESENT IN THE FLOW MODEL =   240

 MAXIMUM STEPSIZE WHICH MEETS STABILITY CRITERION OF THE SINK & SOURCE TERM
 = 0.1000E+31(WHEN MIN. R.F.=1)  AT K=   0, I=   0, J=   0

 MAXIMUM STEPSIZE WHICH MEETS STABILITY CRITERION OF THE DISPERSION TERM
 = 0.7278E-02(WHEN MIN. R.F.=1)  AT K=   3, I=   2, J=  30
     1 CALLS TO GCG PACKAGE FOR TRANSPORT TIME STEP   6 IN FLOW TIME STEP  54 STRESS PERIOD   2
    15 TOTAL ITERATIONS
 
 SOLVING FOR HEAD 
 FLOW MODEL IS TRANSIENT
 FLOW MODEL CONTAINS CONSTANT-HEAD CELLS


 MAXIMUM STEPSIZE DURING WHICH ANY PARTICLE CANNOT MOVE MORE THAN ONE CELL
 = 0.1699    (WHEN MIN. R.F.=1)  AT K=   3, I=   2, J=  30

 MAXIMUM STEPSIZE WHICH MEETS STABILITY CRITERION OF THE ADVECTION TERM
 (FOR PURE FINITE-DIFFERENCE OPTION, MIXELM=0) 
 = 0.1347    (WHEN MIN. R.F.=1)  AT K=   3, I=   2, J=  31


 TOTAL NUMBER OF POINT SOURCES/SINKS PRESENT IN THE FLOW MODEL =   240

 MAXIMUM STEPSIZE WHICH MEETS STABILITY CRITERION OF THE SINK & SOURCE TERM
 = 0.1000E+31(WHEN MIN. R.F.=1)  AT K=   0, I=   0, J=   0

 MAXIMUM STEPSIZE WHICH MEETS STABILITY CRITERION OF THE DISPERSION TERM
 = 0.7278E-02(WHEN MIN. R.F.=1)  AT K=   3, I=   2, J=  30
     1 CALLS TO GCG PACKAGE FOR TRANSPORT TIME STEP   7 IN FLOW TIME STEP  54 STRESS PERIOD   2
    15 TOTAL ITERATIONS
 
 SOLVING FOR HEAD 
 FLOW MODEL IS TRANSIENT
 FLOW MODEL CONTAINS CONSTANT-HEAD CELLS


 MAXIMUM STEPSIZE DURING WHICH ANY PARTICLE CANNOT MOVE MORE THAN ONE CELL
 = 0.1699    (WHEN MIN. R.F.=1)  AT K=   3, I=   2, J=  30

 MAXIMUM STEPSIZE WHICH MEETS STABILITY CRITERION OF THE ADVECTION TERM
 (FOR PURE FINITE-DIFFERENCE OPTION, MIXELM=0) 
 = 0.1347    (WHEN MIN. R.F.=1)  AT K=   3, I=   2, J=  31


 TOTAL NUMBER OF POINT SOURCES/SINKS PRESENT IN THE FLOW MODEL =   240

 MAXIMUM STEPSIZE WHICH MEETS STABILITY CRITERION OF THE SINK & SOURCE TERM
 = 0.1000E+31(WHEN MIN. R.F.=1)  AT K=   0, I=   0, J=   0

 MAXIMUM STEPSIZE WHICH MEETS STABILITY CRITERION OF THE DISPERSION TERM
 = 0.7278E-02(WHEN MIN. R.F.=1)  AT K=   3, I=   2, J=  30
     1 CALLS TO GCG PACKAGE FOR TRANSPORT TIME STEP   8 IN FLOW TIME STEP  54 STRESS PERIOD   2
    14 TOTAL ITERATIONS
  MAXIMUM CONCENTRATION CHANGES FOR EACH ITERATION:
  MAX. CHANGE LAYER,ROW,COL MAX. CHANGE LAYER,ROW,COL MAX. CHANGE LAYER,ROW,COL MAX. CHANGE LAYER,ROW,COL MAX. CHANGE LAYER,ROW,COL
 ------------------------------------------------------------------------------------------------------------------------------------
   0.9815E-03 ( 13,  1, 59)  0.1386E-03 (  9,  1, 57)  0.3729E-04 (  5,  2, 62)  0.1450E-04 (  8,  1, 59)  0.5591E-05 (  4,  2, 53)
   0.3386E-05 (  3,  2, 31)  0.2375E-05 (  3,  2, 30)  0.1609E-05 (  3,  2, 29)  0.1037E-05 (  4,  2, 29)  0.5729E-06 (  3,  2, 29)
   0.3194E-06 (  3,  2, 30)  0.1630E-06 (  3,  3, 33)  0.1024E-06 (  4,  2, 31)  0.5637E-07 (  3,  3, 31)


                                          ================================================
                                                         FROM TIME =   55.000     TO    56.000    

 
 SOLVING FOR HEAD 
 FLOW MODEL IS TRANSIENT
 FLOW MODEL CONTAINS CONSTANT-HEAD CELLS


 MAXIMUM STEPSIZE DURING WHICH ANY PARTICLE CANNOT MOVE MORE THAN ONE CELL
 = 0.1699    (WHEN MIN. R.F.=1)  AT K=   3, I=   2, J=  30

 MAXIMUM STEPSIZE WHICH MEETS STABILITY CRITERION OF THE ADVECTION TERM
 (FOR PURE FINITE-DIFFERENCE OPTION, MIXELM=0) 
 = 0.1347    (WHEN MIN. R.F.=1)  AT K=   3, I=   2, J=  31


 TOTAL NUMBER OF POINT SOURCES/SINKS PRESENT IN THE FLOW MODEL =   240

 MAXIMUM STEPSIZE WHICH MEETS STABILITY CRITERION OF THE SINK & SOURCE TERM
 = 0.1000E+31(WHEN MIN. R.F.=1)  AT K=   0, I=   0, J=   0

 MAXIMUM STEPSIZE WHICH MEETS STABILITY CRITERION OF THE DISPERSION TERM
 = 0.7278E-02(WHEN MIN. R.F.=1)  AT K=   3, I=   2, J=  30


     1 CALLS TO GCG PACKAGE FOR TRANSPORT TIME STEP   1 IN FLOW TIME STEP  55 STRESS PERIOD   2
    15 TOTAL ITERATIONS

 NO OUTPUT CONTROL FOR STRESS PERIOD    2   TIME STEP  55
 
 SOLVING FOR HEAD 
 FLOW MODEL IS TRANSIENT
 FLOW MODEL CONTAINS CONSTANT-HEAD CELLS


 MAXIMUM STEPSIZE DURING WHICH ANY PARTICLE CANNOT MOVE MORE THAN ONE CELL
 = 0.1699    (WHEN MIN. R.F.=1)  AT K=   3, I=   2, J=  30

 MAXIMUM STEPSIZE WHICH MEETS STABILITY CRITERION OF THE ADVECTION TERM
 (FOR PURE FINITE-DIFFERENCE OPTION, MIXELM=0) 
 = 0.1347    (WHEN MIN. R.F.=1)  AT K=   3, I=   2, J=  31


 TOTAL NUMBER OF POINT SOURCES/SINKS PRESENT IN THE FLOW MODEL =   240

 MAXIMUM STEPSIZE WHICH MEETS STABILITY CRITERION OF THE SINK & SOURCE TERM
 = 0.1000E+31(WHEN MIN. R.F.=1)  AT K=   0, I=   0, J=   0

 MAXIMUM STEPSIZE WHICH MEETS STABILITY CRITERION OF THE DISPERSION TERM
 = 0.7278E-02(WHEN MIN. R.F.=1)  AT K=   3, I=   2, J=  30
     1 CALLS TO GCG PACKAGE FOR TRANSPORT TIME STEP   2 IN FLOW TIME STEP  55 STRESS PERIOD   2
    15 TOTAL ITERATIONS
 
 SOLVING FOR HEAD 
 FLOW MODEL IS TRANSIENT
 FLOW MODEL CONTAINS CONSTANT-HEAD CELLS


 MAXIMUM STEPSIZE DURING WHICH ANY PARTICLE CANNOT MOVE MORE THAN ONE CELL
 = 0.1699    (WHEN MIN. R.F.=1)  AT K=   3, I=   2, J=  30

 MAXIMUM STEPSIZE WHICH MEETS STABILITY CRITERION OF THE ADVECTION TERM
 (FOR PURE FINITE-DIFFERENCE OPTION, MIXELM=0) 
 = 0.1347    (WHEN MIN. R.F.=1)  AT K=   3, I=   2, J=  31


 TOTAL NUMBER OF POINT SOURCES/SINKS PRESENT IN THE FLOW MODEL =   240

 MAXIMUM STEPSIZE WHICH MEETS STABILITY CRITERION OF THE SINK & SOURCE TERM
 = 0.1000E+31(WHEN MIN. R.F.=1)  AT K=   0, I=   0, J=   0

 MAXIMUM STEPSIZE WHICH MEETS STABILITY CRITERION OF THE DISPERSION TERM
 = 0.7278E-02(WHEN MIN. R.F.=1)  AT K=   3, I=   2, J=  30
     1 CALLS TO GCG PACKAGE FOR TRANSPORT TIME STEP   3 IN FLOW TIME STEP  55 STRESS PERIOD   2
    15 TOTAL ITERATIONS
 
 SOLVING FOR HEAD 
 FLOW MODEL IS TRANSIENT
 FLOW MODEL CONTAINS CONSTANT-HEAD CELLS


 MAXIMUM STEPSIZE DURING WHICH ANY PARTICLE CANNOT MOVE MORE THAN ONE CELL
 = 0.1699    (WHEN MIN. R.F.=1)  AT K=   3, I=   2, J=  30

 MAXIMUM STEPSIZE WHICH MEETS STABILITY CRITERION OF THE ADVECTION TERM
 (FOR PURE FINITE-DIFFERENCE OPTION, MIXELM=0) 
 = 0.1347    (WHEN MIN. R.F.=1)  AT K=   3, I=   2, J=  31


 TOTAL NUMBER OF POINT SOURCES/SINKS PRESENT IN THE FLOW MODEL =   240

 MAXIMUM STEPSIZE WHICH MEETS STABILITY CRITERION OF THE SINK & SOURCE TERM
 = 0.1000E+31(WHEN MIN. R.F.=1)  AT K=   0, I=   0, J=   0

 MAXIMUM STEPSIZE WHICH MEETS STABILITY CRITERION OF THE DISPERSION TERM
 = 0.7278E-02(WHEN MIN. R.F.=1)  AT K=   3, I=   2, J=  30
     1 CALLS TO GCG PACKAGE FOR TRANSPORT TIME STEP   4 IN FLOW TIME STEP  55 STRESS PERIOD   2
    15 TOTAL ITERATIONS
 
 SOLVING FOR HEAD 
 FLOW MODEL IS TRANSIENT
 FLOW MODEL CONTAINS CONSTANT-HEAD CELLS


 MAXIMUM STEPSIZE DURING WHICH ANY PARTICLE CANNOT MOVE MORE THAN ONE CELL
 = 0.1699    (WHEN MIN. R.F.=1)  AT K=   3, I=   2, J=  30

 MAXIMUM STEPSIZE WHICH MEETS STABILITY CRITERION OF THE ADVECTION TERM
 (FOR PURE FINITE-DIFFERENCE OPTION, MIXELM=0) 
 = 0.1347    (WHEN MIN. R.F.=1)  AT K=   3, I=   2, J=  31


 TOTAL NUMBER OF POINT SOURCES/SINKS PRESENT IN THE FLOW MODEL =   240

 MAXIMUM STEPSIZE WHICH MEETS STABILITY CRITERION OF THE SINK & SOURCE TERM
 = 0.1000E+31(WHEN MIN. R.F.=1)  AT K=   0, I=   0, J=   0

 MAXIMUM STEPSIZE WHICH MEETS STABILITY CRITERION OF THE DISPERSION TERM
 = 0.7278E-02(WHEN MIN. R.F.=1)  AT K=   3, I=   2, J=  30
     1 CALLS TO GCG PACKAGE FOR TRANSPORT TIME STEP   5 IN FLOW TIME STEP  55 STRESS PERIOD   2
    15 TOTAL ITERATIONS
 
 SOLVING FOR HEAD 
 FLOW MODEL IS TRANSIENT
 FLOW MODEL CONTAINS CONSTANT-HEAD CELLS


 MAXIMUM STEPSIZE DURING WHICH ANY PARTICLE CANNOT MOVE MORE THAN ONE CELL
 = 0.1699    (WHEN MIN. R.F.=1)  AT K=   3, I=   2, J=  30

 MAXIMUM STEPSIZE WHICH MEETS STABILITY CRITERION OF THE ADVECTION TERM
 (FOR PURE FINITE-DIFFERENCE OPTION, MIXELM=0) 
 = 0.1347    (WHEN MIN. R.F.=1)  AT K=   3, I=   2, J=  31


 TOTAL NUMBER OF POINT SOURCES/SINKS PRESENT IN THE FLOW MODEL =   240

 MAXIMUM STEPSIZE WHICH MEETS STABILITY CRITERION OF THE SINK & SOURCE TERM
 = 0.1000E+31(WHEN MIN. R.F.=1)  AT K=   0, I=   0, J=   0

 MAXIMUM STEPSIZE WHICH MEETS STABILITY CRITERION OF THE DISPERSION TERM
 = 0.7278E-02(WHEN MIN. R.F.=1)  AT K=   3, I=   2, J=  30
     1 CALLS TO GCG PACKAGE FOR TRANSPORT TIME STEP   6 IN FLOW TIME STEP  55 STRESS PERIOD   2
    15 TOTAL ITERATIONS
 
 SOLVING FOR HEAD 
 FLOW MODEL IS TRANSIENT
 FLOW MODEL CONTAINS CONSTANT-HEAD CELLS


 MAXIMUM STEPSIZE DURING WHICH ANY PARTICLE CANNOT MOVE MORE THAN ONE CELL
 = 0.1699    (WHEN MIN. R.F.=1)  AT K=   3, I=   2, J=  30

 MAXIMUM STEPSIZE WHICH MEETS STABILITY CRITERION OF THE ADVECTION TERM
 (FOR PURE FINITE-DIFFERENCE OPTION, MIXELM=0) 
 = 0.1347    (WHEN MIN. R.F.=1)  AT K=   3, I=   2, J=  31


 TOTAL NUMBER OF POINT SOURCES/SINKS PRESENT IN THE FLOW MODEL =   240

 MAXIMUM STEPSIZE WHICH MEETS STABILITY CRITERION OF THE SINK & SOURCE TERM
 = 0.1000E+31(WHEN MIN. R.F.=1)  AT K=   0, I=   0, J=   0

 MAXIMUM STEPSIZE WHICH MEETS STABILITY CRITERION OF THE DISPERSION TERM
 = 0.7278E-02(WHEN MIN. R.F.=1)  AT K=   3, I=   2, J=  30
     1 CALLS TO GCG PACKAGE FOR TRANSPORT TIME STEP   7 IN FLOW TIME STEP  55 STRESS PERIOD   2
    15 TOTAL ITERATIONS
 
 SOLVING FOR HEAD 
 FLOW MODEL IS TRANSIENT
 FLOW MODEL CONTAINS CONSTANT-HEAD CELLS


 MAXIMUM STEPSIZE DURING WHICH ANY PARTICLE CANNOT MOVE MORE THAN ONE CELL
 = 0.1699    (WHEN MIN. R.F.=1)  AT K=   3, I=   2, J=  30

 MAXIMUM STEPSIZE WHICH MEETS STABILITY CRITERION OF THE ADVECTION TERM
 (FOR PURE FINITE-DIFFERENCE OPTION, MIXELM=0) 
 = 0.1347    (WHEN MIN. R.F.=1)  AT K=   3, I=   2, J=  31


 TOTAL NUMBER OF POINT SOURCES/SINKS PRESENT IN THE FLOW MODEL =   240

 MAXIMUM STEPSIZE WHICH MEETS STABILITY CRITERION OF THE SINK & SOURCE TERM
 = 0.1000E+31(WHEN MIN. R.F.=1)  AT K=   0, I=   0, J=   0

 MAXIMUM STEPSIZE WHICH MEETS STABILITY CRITERION OF THE DISPERSION TERM
 = 0.7278E-02(WHEN MIN. R.F.=1)  AT K=   3, I=   2, J=  30
     1 CALLS TO GCG PACKAGE FOR TRANSPORT TIME STEP   8 IN FLOW TIME STEP  55 STRESS PERIOD   2
    13 TOTAL ITERATIONS
  MAXIMUM CONCENTRATION CHANGES FOR EACH ITERATION:
  MAX. CHANGE LAYER,ROW,COL MAX. CHANGE LAYER,ROW,COL MAX. CHANGE LAYER,ROW,COL MAX. CHANGE LAYER,ROW,COL MAX. CHANGE LAYER,ROW,COL
 ------------------------------------------------------------------------------------------------------------------------------------
   0.9620E-03 ( 13,  1, 59)  0.1346E-03 (  9,  1, 57)  0.3605E-04 (  5,  2, 62)  0.1404E-04 (  8,  1, 59)  0.5378E-05 (  4,  2, 53)
   0.3225E-05 (  3,  2, 31)  0.2274E-05 (  3,  2, 30)  0.1541E-05 (  3,  2, 29)  0.9958E-06 (  4,  2, 29)  0.5488E-06 (  3,  2, 29)
   0.3059E-06 (  3,  2, 30)  0.1558E-06 (  3,  2, 31)  0.9776E-07 (  4,  2, 31)


                                          ================================================
                                                         FROM TIME =   56.000     TO    57.000    

 
 SOLVING FOR HEAD 
 FLOW MODEL IS TRANSIENT
 FLOW MODEL CONTAINS CONSTANT-HEAD CELLS


 MAXIMUM STEPSIZE DURING WHICH ANY PARTICLE CANNOT MOVE MORE THAN ONE CELL
 = 0.1699    (WHEN MIN. R.F.=1)  AT K=   3, I=   2, J=  30

 MAXIMUM STEPSIZE WHICH MEETS STABILITY CRITERION OF THE ADVECTION TERM
 (FOR PURE FINITE-DIFFERENCE OPTION, MIXELM=0) 
 = 0.1347    (WHEN MIN. R.F.=1)  AT K=   3, I=   2, J=  31


 TOTAL NUMBER OF POINT SOURCES/SINKS PRESENT IN THE FLOW MODEL =   240

 MAXIMUM STEPSIZE WHICH MEETS STABILITY CRITERION OF THE SINK & SOURCE TERM
 = 0.1000E+31(WHEN MIN. R.F.=1)  AT K=   0, I=   0, J=   0

 MAXIMUM STEPSIZE WHICH MEETS STABILITY CRITERION OF THE DISPERSION TERM
 = 0.7278E-02(WHEN MIN. R.F.=1)  AT K=   3, I=   2, J=  30


     1 CALLS TO GCG PACKAGE FOR TRANSPORT TIME STEP   1 IN FLOW TIME STEP  56 STRESS PERIOD   2
    15 TOTAL ITERATIONS

 NO OUTPUT CONTROL FOR STRESS PERIOD    2   TIME STEP  56
 
 SOLVING FOR HEAD 
 FLOW MODEL IS TRANSIENT
 FLOW MODEL CONTAINS CONSTANT-HEAD CELLS


 MAXIMUM STEPSIZE DURING WHICH ANY PARTICLE CANNOT MOVE MORE THAN ONE CELL
 = 0.1699    (WHEN MIN. R.F.=1)  AT K=   3, I=   2, J=  30

 MAXIMUM STEPSIZE WHICH MEETS STABILITY CRITERION OF THE ADVECTION TERM
 (FOR PURE FINITE-DIFFERENCE OPTION, MIXELM=0) 
 = 0.1347    (WHEN MIN. R.F.=1)  AT K=   3, I=   2, J=  31


 TOTAL NUMBER OF POINT SOURCES/SINKS PRESENT IN THE FLOW MODEL =   240

 MAXIMUM STEPSIZE WHICH MEETS STABILITY CRITERION OF THE SINK & SOURCE TERM
 = 0.1000E+31(WHEN MIN. R.F.=1)  AT K=   0, I=   0, J=   0

 MAXIMUM STEPSIZE WHICH MEETS STABILITY CRITERION OF THE DISPERSION TERM
 = 0.7278E-02(WHEN MIN. R.F.=1)  AT K=   3, I=   2, J=  30
     1 CALLS TO GCG PACKAGE FOR TRANSPORT TIME STEP   2 IN FLOW TIME STEP  56 STRESS PERIOD   2
    14 TOTAL ITERATIONS
 
 SOLVING FOR HEAD 
 FLOW MODEL IS TRANSIENT
 FLOW MODEL CONTAINS CONSTANT-HEAD CELLS


 MAXIMUM STEPSIZE DURING WHICH ANY PARTICLE CANNOT MOVE MORE THAN ONE CELL
 = 0.1699    (WHEN MIN. R.F.=1)  AT K=   3, I=   2, J=  30

 MAXIMUM STEPSIZE WHICH MEETS STABILITY CRITERION OF THE ADVECTION TERM
 (FOR PURE FINITE-DIFFERENCE OPTION, MIXELM=0) 
 = 0.1347    (WHEN MIN. R.F.=1)  AT K=   3, I=   2, J=  31


 TOTAL NUMBER OF POINT SOURCES/SINKS PRESENT IN THE FLOW MODEL =   240

 MAXIMUM STEPSIZE WHICH MEETS STABILITY CRITERION OF THE SINK & SOURCE TERM
 = 0.1000E+31(WHEN MIN. R.F.=1)  AT K=   0, I=   0, J=   0

 MAXIMUM STEPSIZE WHICH MEETS STABILITY CRITERION OF THE DISPERSION TERM
 = 0.7278E-02(WHEN MIN. R.F.=1)  AT K=   3, I=   2, J=  30
     1 CALLS TO GCG PACKAGE FOR TRANSPORT TIME STEP   3 IN FLOW TIME STEP  56 STRESS PERIOD   2
    14 TOTAL ITERATIONS
 
 SOLVING FOR HEAD 
 FLOW MODEL IS TRANSIENT
 FLOW MODEL CONTAINS CONSTANT-HEAD CELLS


 MAXIMUM STEPSIZE DURING WHICH ANY PARTICLE CANNOT MOVE MORE THAN ONE CELL
 = 0.1699    (WHEN MIN. R.F.=1)  AT K=   3, I=   2, J=  30

 MAXIMUM STEPSIZE WHICH MEETS STABILITY CRITERION OF THE ADVECTION TERM
 (FOR PURE FINITE-DIFFERENCE OPTION, MIXELM=0) 
 = 0.1347    (WHEN MIN. R.F.=1)  AT K=   3, I=   2, J=  31


 TOTAL NUMBER OF POINT SOURCES/SINKS PRESENT IN THE FLOW MODEL =   240

 MAXIMUM STEPSIZE WHICH MEETS STABILITY CRITERION OF THE SINK & SOURCE TERM
 = 0.1000E+31(WHEN MIN. R.F.=1)  AT K=   0, I=   0, J=   0

 MAXIMUM STEPSIZE WHICH MEETS STABILITY CRITERION OF THE DISPERSION TERM
 = 0.7278E-02(WHEN MIN. R.F.=1)  AT K=   3, I=   2, J=  30
     1 CALLS TO GCG PACKAGE FOR TRANSPORT TIME STEP   4 IN FLOW TIME STEP  56 STRESS PERIOD   2
    14 TOTAL ITERATIONS
 
 SOLVING FOR HEAD 
 FLOW MODEL IS TRANSIENT
 FLOW MODEL CONTAINS CONSTANT-HEAD CELLS


 MAXIMUM STEPSIZE DURING WHICH ANY PARTICLE CANNOT MOVE MORE THAN ONE CELL
 = 0.1699    (WHEN MIN. R.F.=1)  AT K=   3, I=   2, J=  30

 MAXIMUM STEPSIZE WHICH MEETS STABILITY CRITERION OF THE ADVECTION TERM
 (FOR PURE FINITE-DIFFERENCE OPTION, MIXELM=0) 
 = 0.1347    (WHEN MIN. R.F.=1)  AT K=   3, I=   2, J=  31


 TOTAL NUMBER OF POINT SOURCES/SINKS PRESENT IN THE FLOW MODEL =   240

 MAXIMUM STEPSIZE WHICH MEETS STABILITY CRITERION OF THE SINK & SOURCE TERM
 = 0.1000E+31(WHEN MIN. R.F.=1)  AT K=   0, I=   0, J=   0

 MAXIMUM STEPSIZE WHICH MEETS STABILITY CRITERION OF THE DISPERSION TERM
 = 0.7278E-02(WHEN MIN. R.F.=1)  AT K=   3, I=   2, J=  30
     1 CALLS TO GCG PACKAGE FOR TRANSPORT TIME STEP   5 IN FLOW TIME STEP  56 STRESS PERIOD   2
    14 TOTAL ITERATIONS
 
 SOLVING FOR HEAD 
 FLOW MODEL IS TRANSIENT
 FLOW MODEL CONTAINS CONSTANT-HEAD CELLS


 MAXIMUM STEPSIZE DURING WHICH ANY PARTICLE CANNOT MOVE MORE THAN ONE CELL
 = 0.1699    (WHEN MIN. R.F.=1)  AT K=   3, I=   2, J=  30

 MAXIMUM STEPSIZE WHICH MEETS STABILITY CRITERION OF THE ADVECTION TERM
 (FOR PURE FINITE-DIFFERENCE OPTION, MIXELM=0) 
 = 0.1347    (WHEN MIN. R.F.=1)  AT K=   3, I=   2, J=  31


 TOTAL NUMBER OF POINT SOURCES/SINKS PRESENT IN THE FLOW MODEL =   240

 MAXIMUM STEPSIZE WHICH MEETS STABILITY CRITERION OF THE SINK & SOURCE TERM
 = 0.1000E+31(WHEN MIN. R.F.=1)  AT K=   0, I=   0, J=   0

 MAXIMUM STEPSIZE WHICH MEETS STABILITY CRITERION OF THE DISPERSION TERM
 = 0.7278E-02(WHEN MIN. R.F.=1)  AT K=   3, I=   2, J=  30
     1 CALLS TO GCG PACKAGE FOR TRANSPORT TIME STEP   6 IN FLOW TIME STEP  56 STRESS PERIOD   2
    14 TOTAL ITERATIONS
 
 SOLVING FOR HEAD 
 FLOW MODEL IS TRANSIENT
 FLOW MODEL CONTAINS CONSTANT-HEAD CELLS


 MAXIMUM STEPSIZE DURING WHICH ANY PARTICLE CANNOT MOVE MORE THAN ONE CELL
 = 0.1699    (WHEN MIN. R.F.=1)  AT K=   3, I=   2, J=  30

 MAXIMUM STEPSIZE WHICH MEETS STABILITY CRITERION OF THE ADVECTION TERM
 (FOR PURE FINITE-DIFFERENCE OPTION, MIXELM=0) 
 = 0.1347    (WHEN MIN. R.F.=1)  AT K=   3, I=   2, J=  31


 TOTAL NUMBER OF POINT SOURCES/SINKS PRESENT IN THE FLOW MODEL =   240

 MAXIMUM STEPSIZE WHICH MEETS STABILITY CRITERION OF THE SINK & SOURCE TERM
 = 0.1000E+31(WHEN MIN. R.F.=1)  AT K=   0, I=   0, J=   0

 MAXIMUM STEPSIZE WHICH MEETS STABILITY CRITERION OF THE DISPERSION TERM
 = 0.7278E-02(WHEN MIN. R.F.=1)  AT K=   3, I=   2, J=  30
     1 CALLS TO GCG PACKAGE FOR TRANSPORT TIME STEP   7 IN FLOW TIME STEP  56 STRESS PERIOD   2
    14 TOTAL ITERATIONS
 
 SOLVING FOR HEAD 
 FLOW MODEL IS TRANSIENT
 FLOW MODEL CONTAINS CONSTANT-HEAD CELLS


 MAXIMUM STEPSIZE DURING WHICH ANY PARTICLE CANNOT MOVE MORE THAN ONE CELL
 = 0.1699    (WHEN MIN. R.F.=1)  AT K=   3, I=   2, J=  30

 MAXIMUM STEPSIZE WHICH MEETS STABILITY CRITERION OF THE ADVECTION TERM
 (FOR PURE FINITE-DIFFERENCE OPTION, MIXELM=0) 
 = 0.1347    (WHEN MIN. R.F.=1)  AT K=   3, I=   2, J=  31


 TOTAL NUMBER OF POINT SOURCES/SINKS PRESENT IN THE FLOW MODEL =   240

 MAXIMUM STEPSIZE WHICH MEETS STABILITY CRITERION OF THE SINK & SOURCE TERM
 = 0.1000E+31(WHEN MIN. R.F.=1)  AT K=   0, I=   0, J=   0

 MAXIMUM STEPSIZE WHICH MEETS STABILITY CRITERION OF THE DISPERSION TERM
 = 0.7278E-02(WHEN MIN. R.F.=1)  AT K=   3, I=   2, J=  30
     1 CALLS TO GCG PACKAGE FOR TRANSPORT TIME STEP   8 IN FLOW TIME STEP  56 STRESS PERIOD   2
    13 TOTAL ITERATIONS
  MAXIMUM CONCENTRATION CHANGES FOR EACH ITERATION:
  MAX. CHANGE LAYER,ROW,COL MAX. CHANGE LAYER,ROW,COL MAX. CHANGE LAYER,ROW,COL MAX. CHANGE LAYER,ROW,COL MAX. CHANGE LAYER,ROW,COL
 ------------------------------------------------------------------------------------------------------------------------------------
   0.9425E-03 ( 13,  1, 59)  0.1307E-03 (  9,  1, 57)  0.3485E-04 (  5,  2, 62)  0.1361E-04 (  8,  1, 59)  0.5177E-05 (  4,  2, 53)
   0.3256E-05 (  3,  3, 31)  0.2278E-05 (  4,  3, 31)  0.1485E-05 (  3,  3, 29)  0.9731E-06 (  4,  3, 29)  0.5349E-06 (  3,  3, 29)
   0.2935E-06 (  4,  3, 29)  0.1494E-06 (  4,  3, 30)  0.9093E-07 (  4,  3, 31)


                                          ================================================
                                                         FROM TIME =   57.000     TO    58.000    

 
 SOLVING FOR HEAD 
 FLOW MODEL IS TRANSIENT
 FLOW MODEL CONTAINS CONSTANT-HEAD CELLS


 MAXIMUM STEPSIZE DURING WHICH ANY PARTICLE CANNOT MOVE MORE THAN ONE CELL
 = 0.1699    (WHEN MIN. R.F.=1)  AT K=   3, I=   2, J=  30

 MAXIMUM STEPSIZE WHICH MEETS STABILITY CRITERION OF THE ADVECTION TERM
 (FOR PURE FINITE-DIFFERENCE OPTION, MIXELM=0) 
 = 0.1347    (WHEN MIN. R.F.=1)  AT K=   3, I=   2, J=  31


 TOTAL NUMBER OF POINT SOURCES/SINKS PRESENT IN THE FLOW MODEL =   240

 MAXIMUM STEPSIZE WHICH MEETS STABILITY CRITERION OF THE SINK & SOURCE TERM
 = 0.1000E+31(WHEN MIN. R.F.=1)  AT K=   0, I=   0, J=   0

 MAXIMUM STEPSIZE WHICH MEETS STABILITY CRITERION OF THE DISPERSION TERM
 = 0.7278E-02(WHEN MIN. R.F.=1)  AT K=   3, I=   2, J=  30


     1 CALLS TO GCG PACKAGE FOR TRANSPORT TIME STEP   1 IN FLOW TIME STEP  57 STRESS PERIOD   2
    14 TOTAL ITERATIONS

 NO OUTPUT CONTROL FOR STRESS PERIOD    2   TIME STEP  57
 
 SOLVING FOR HEAD 
 FLOW MODEL IS TRANSIENT
 FLOW MODEL CONTAINS CONSTANT-HEAD CELLS


 MAXIMUM STEPSIZE DURING WHICH ANY PARTICLE CANNOT MOVE MORE THAN ONE CELL
 = 0.1699    (WHEN MIN. R.F.=1)  AT K=   3, I=   2, J=  30

 MAXIMUM STEPSIZE WHICH MEETS STABILITY CRITERION OF THE ADVECTION TERM
 (FOR PURE FINITE-DIFFERENCE OPTION, MIXELM=0) 
 = 0.1347    (WHEN MIN. R.F.=1)  AT K=   3, I=   2, J=  31


 TOTAL NUMBER OF POINT SOURCES/SINKS PRESENT IN THE FLOW MODEL =   240

 MAXIMUM STEPSIZE WHICH MEETS STABILITY CRITERION OF THE SINK & SOURCE TERM
 = 0.1000E+31(WHEN MIN. R.F.=1)  AT K=   0, I=   0, J=   0

 MAXIMUM STEPSIZE WHICH MEETS STABILITY CRITERION OF THE DISPERSION TERM
 = 0.7278E-02(WHEN MIN. R.F.=1)  AT K=   3, I=   2, J=  30
     1 CALLS TO GCG PACKAGE FOR TRANSPORT TIME STEP   2 IN FLOW TIME STEP  57 STRESS PERIOD   2
    14 TOTAL ITERATIONS
 
 SOLVING FOR HEAD 
 FLOW MODEL IS TRANSIENT
 FLOW MODEL CONTAINS CONSTANT-HEAD CELLS


 MAXIMUM STEPSIZE DURING WHICH ANY PARTICLE CANNOT MOVE MORE THAN ONE CELL
 = 0.1699    (WHEN MIN. R.F.=1)  AT K=   3, I=   2, J=  30

 MAXIMUM STEPSIZE WHICH MEETS STABILITY CRITERION OF THE ADVECTION TERM
 (FOR PURE FINITE-DIFFERENCE OPTION, MIXELM=0) 
 = 0.1347    (WHEN MIN. R.F.=1)  AT K=   3, I=   2, J=  31


 TOTAL NUMBER OF POINT SOURCES/SINKS PRESENT IN THE FLOW MODEL =   240

 MAXIMUM STEPSIZE WHICH MEETS STABILITY CRITERION OF THE SINK & SOURCE TERM
 = 0.1000E+31(WHEN MIN. R.F.=1)  AT K=   0, I=   0, J=   0

 MAXIMUM STEPSIZE WHICH MEETS STABILITY CRITERION OF THE DISPERSION TERM
 = 0.7278E-02(WHEN MIN. R.F.=1)  AT K=   3, I=   2, J=  30
     1 CALLS TO GCG PACKAGE FOR TRANSPORT TIME STEP   3 IN FLOW TIME STEP  57 STRESS PERIOD   2
    14 TOTAL ITERATIONS
 
 SOLVING FOR HEAD 
 FLOW MODEL IS TRANSIENT
 FLOW MODEL CONTAINS CONSTANT-HEAD CELLS


 MAXIMUM STEPSIZE DURING WHICH ANY PARTICLE CANNOT MOVE MORE THAN ONE CELL
 = 0.1699    (WHEN MIN. R.F.=1)  AT K=   3, I=   2, J=  30

 MAXIMUM STEPSIZE WHICH MEETS STABILITY CRITERION OF THE ADVECTION TERM
 (FOR PURE FINITE-DIFFERENCE OPTION, MIXELM=0) 
 = 0.1347    (WHEN MIN. R.F.=1)  AT K=   3, I=   2, J=  31


 TOTAL NUMBER OF POINT SOURCES/SINKS PRESENT IN THE FLOW MODEL =   240

 MAXIMUM STEPSIZE WHICH MEETS STABILITY CRITERION OF THE SINK & SOURCE TERM
 = 0.1000E+31(WHEN MIN. R.F.=1)  AT K=   0, I=   0, J=   0

 MAXIMUM STEPSIZE WHICH MEETS STABILITY CRITERION OF THE DISPERSION TERM
 = 0.7278E-02(WHEN MIN. R.F.=1)  AT K=   3, I=   2, J=  30
     1 CALLS TO GCG PACKAGE FOR TRANSPORT TIME STEP   4 IN FLOW TIME STEP  57 STRESS PERIOD   2
    14 TOTAL ITERATIONS
 
 SOLVING FOR HEAD 
 FLOW MODEL IS TRANSIENT
 FLOW MODEL CONTAINS CONSTANT-HEAD CELLS


 MAXIMUM STEPSIZE DURING WHICH ANY PARTICLE CANNOT MOVE MORE THAN ONE CELL
 = 0.1699    (WHEN MIN. R.F.=1)  AT K=   3, I=   2, J=  30

 MAXIMUM STEPSIZE WHICH MEETS STABILITY CRITERION OF THE ADVECTION TERM
 (FOR PURE FINITE-DIFFERENCE OPTION, MIXELM=0) 
 = 0.1347    (WHEN MIN. R.F.=1)  AT K=   3, I=   2, J=  31


 TOTAL NUMBER OF POINT SOURCES/SINKS PRESENT IN THE FLOW MODEL =   240

 MAXIMUM STEPSIZE WHICH MEETS STABILITY CRITERION OF THE SINK & SOURCE TERM
 = 0.1000E+31(WHEN MIN. R.F.=1)  AT K=   0, I=   0, J=   0

 MAXIMUM STEPSIZE WHICH MEETS STABILITY CRITERION OF THE DISPERSION TERM
 = 0.7278E-02(WHEN MIN. R.F.=1)  AT K=   3, I=   2, J=  30
     1 CALLS TO GCG PACKAGE FOR TRANSPORT TIME STEP   5 IN FLOW TIME STEP  57 STRESS PERIOD   2
    14 TOTAL ITERATIONS
 
 SOLVING FOR HEAD 
 FLOW MODEL IS TRANSIENT
 FLOW MODEL CONTAINS CONSTANT-HEAD CELLS


 MAXIMUM STEPSIZE DURING WHICH ANY PARTICLE CANNOT MOVE MORE THAN ONE CELL
 = 0.1699    (WHEN MIN. R.F.=1)  AT K=   3, I=   2, J=  30

 MAXIMUM STEPSIZE WHICH MEETS STABILITY CRITERION OF THE ADVECTION TERM
 (FOR PURE FINITE-DIFFERENCE OPTION, MIXELM=0) 
 = 0.1347    (WHEN MIN. R.F.=1)  AT K=   3, I=   2, J=  31


 TOTAL NUMBER OF POINT SOURCES/SINKS PRESENT IN THE FLOW MODEL =   240

 MAXIMUM STEPSIZE WHICH MEETS STABILITY CRITERION OF THE SINK & SOURCE TERM
 = 0.1000E+31(WHEN MIN. R.F.=1)  AT K=   0, I=   0, J=   0

 MAXIMUM STEPSIZE WHICH MEETS STABILITY CRITERION OF THE DISPERSION TERM
 = 0.7278E-02(WHEN MIN. R.F.=1)  AT K=   3, I=   2, J=  30
     1 CALLS TO GCG PACKAGE FOR TRANSPORT TIME STEP   6 IN FLOW TIME STEP  57 STRESS PERIOD   2
    14 TOTAL ITERATIONS
 
 SOLVING FOR HEAD 
 FLOW MODEL IS TRANSIENT
 FLOW MODEL CONTAINS CONSTANT-HEAD CELLS


 MAXIMUM STEPSIZE DURING WHICH ANY PARTICLE CANNOT MOVE MORE THAN ONE CELL
 = 0.1699    (WHEN MIN. R.F.=1)  AT K=   3, I=   2, J=  30

 MAXIMUM STEPSIZE WHICH MEETS STABILITY CRITERION OF THE ADVECTION TERM
 (FOR PURE FINITE-DIFFERENCE OPTION, MIXELM=0) 
 = 0.1347    (WHEN MIN. R.F.=1)  AT K=   3, I=   2, J=  31


 TOTAL NUMBER OF POINT SOURCES/SINKS PRESENT IN THE FLOW MODEL =   240

 MAXIMUM STEPSIZE WHICH MEETS STABILITY CRITERION OF THE SINK & SOURCE TERM
 = 0.1000E+31(WHEN MIN. R.F.=1)  AT K=   0, I=   0, J=   0

 MAXIMUM STEPSIZE WHICH MEETS STABILITY CRITERION OF THE DISPERSION TERM
 = 0.7278E-02(WHEN MIN. R.F.=1)  AT K=   3, I=   2, J=  30
     1 CALLS TO GCG PACKAGE FOR TRANSPORT TIME STEP   7 IN FLOW TIME STEP  57 STRESS PERIOD   2
    14 TOTAL ITERATIONS
 
 SOLVING FOR HEAD 
 FLOW MODEL IS TRANSIENT
 FLOW MODEL CONTAINS CONSTANT-HEAD CELLS


 MAXIMUM STEPSIZE DURING WHICH ANY PARTICLE CANNOT MOVE MORE THAN ONE CELL
 = 0.1699    (WHEN MIN. R.F.=1)  AT K=   3, I=   2, J=  30

 MAXIMUM STEPSIZE WHICH MEETS STABILITY CRITERION OF THE ADVECTION TERM
 (FOR PURE FINITE-DIFFERENCE OPTION, MIXELM=0) 
 = 0.1347    (WHEN MIN. R.F.=1)  AT K=   3, I=   2, J=  31


 TOTAL NUMBER OF POINT SOURCES/SINKS PRESENT IN THE FLOW MODEL =   240

 MAXIMUM STEPSIZE WHICH MEETS STABILITY CRITERION OF THE SINK & SOURCE TERM
 = 0.1000E+31(WHEN MIN. R.F.=1)  AT K=   0, I=   0, J=   0

 MAXIMUM STEPSIZE WHICH MEETS STABILITY CRITERION OF THE DISPERSION TERM
 = 0.7278E-02(WHEN MIN. R.F.=1)  AT K=   3, I=   2, J=  30
     1 CALLS TO GCG PACKAGE FOR TRANSPORT TIME STEP   8 IN FLOW TIME STEP  57 STRESS PERIOD   2
    13 TOTAL ITERATIONS
  MAXIMUM CONCENTRATION CHANGES FOR EACH ITERATION:
  MAX. CHANGE LAYER,ROW,COL MAX. CHANGE LAYER,ROW,COL MAX. CHANGE LAYER,ROW,COL MAX. CHANGE LAYER,ROW,COL MAX. CHANGE LAYER,ROW,COL
 ------------------------------------------------------------------------------------------------------------------------------------
   0.9221E-03 ( 13,  1, 59)  0.1269E-03 (  9,  1, 57)  0.3371E-04 (  5,  2, 62)  0.1318E-04 (  8,  1, 59)  0.4983E-05 (  4,  2, 53)
   0.3073E-05 (  3,  3, 31)  0.2162E-05 (  4,  3, 31)  0.1414E-05 (  3,  3, 29)  0.9312E-06 (  4,  3, 29)  0.5115E-06 (  3,  3, 29)
   0.2814E-06 (  4,  3, 29)  0.1431E-06 (  4,  3, 30)  0.8692E-07 (  4,  3, 31)


                                          ================================================
                                                         FROM TIME =   58.000     TO    59.000    

 
 SOLVING FOR HEAD 
 FLOW MODEL IS TRANSIENT
 FLOW MODEL CONTAINS CONSTANT-HEAD CELLS


 MAXIMUM STEPSIZE DURING WHICH ANY PARTICLE CANNOT MOVE MORE THAN ONE CELL
 = 0.1699    (WHEN MIN. R.F.=1)  AT K=   3, I=   2, J=  30

 MAXIMUM STEPSIZE WHICH MEETS STABILITY CRITERION OF THE ADVECTION TERM
 (FOR PURE FINITE-DIFFERENCE OPTION, MIXELM=0) 
 = 0.1347    (WHEN MIN. R.F.=1)  AT K=   3, I=   2, J=  31


 TOTAL NUMBER OF POINT SOURCES/SINKS PRESENT IN THE FLOW MODEL =   240

 MAXIMUM STEPSIZE WHICH MEETS STABILITY CRITERION OF THE SINK & SOURCE TERM
 = 0.1000E+31(WHEN MIN. R.F.=1)  AT K=   0, I=   0, J=   0

 MAXIMUM STEPSIZE WHICH MEETS STABILITY CRITERION OF THE DISPERSION TERM
 = 0.7278E-02(WHEN MIN. R.F.=1)  AT K=   3, I=   2, J=  30


     1 CALLS TO GCG PACKAGE FOR TRANSPORT TIME STEP   1 IN FLOW TIME STEP  58 STRESS PERIOD   2
    14 TOTAL ITERATIONS

 NO OUTPUT CONTROL FOR STRESS PERIOD    2   TIME STEP  58
 
 SOLVING FOR HEAD 
 FLOW MODEL IS TRANSIENT
 FLOW MODEL CONTAINS CONSTANT-HEAD CELLS


 MAXIMUM STEPSIZE DURING WHICH ANY PARTICLE CANNOT MOVE MORE THAN ONE CELL
 = 0.1699    (WHEN MIN. R.F.=1)  AT K=   3, I=   2, J=  30

 MAXIMUM STEPSIZE WHICH MEETS STABILITY CRITERION OF THE ADVECTION TERM
 (FOR PURE FINITE-DIFFERENCE OPTION, MIXELM=0) 
 = 0.1347    (WHEN MIN. R.F.=1)  AT K=   3, I=   2, J=  31


 TOTAL NUMBER OF POINT SOURCES/SINKS PRESENT IN THE FLOW MODEL =   240

 MAXIMUM STEPSIZE WHICH MEETS STABILITY CRITERION OF THE SINK & SOURCE TERM
 = 0.1000E+31(WHEN MIN. R.F.=1)  AT K=   0, I=   0, J=   0

 MAXIMUM STEPSIZE WHICH MEETS STABILITY CRITERION OF THE DISPERSION TERM
 = 0.7278E-02(WHEN MIN. R.F.=1)  AT K=   3, I=   2, J=  30
     1 CALLS TO GCG PACKAGE FOR TRANSPORT TIME STEP   2 IN FLOW TIME STEP  58 STRESS PERIOD   2
    14 TOTAL ITERATIONS
 
 SOLVING FOR HEAD 
 FLOW MODEL IS TRANSIENT
 FLOW MODEL CONTAINS CONSTANT-HEAD CELLS


 MAXIMUM STEPSIZE DURING WHICH ANY PARTICLE CANNOT MOVE MORE THAN ONE CELL
 = 0.1699    (WHEN MIN. R.F.=1)  AT K=   3, I=   2, J=  30

 MAXIMUM STEPSIZE WHICH MEETS STABILITY CRITERION OF THE ADVECTION TERM
 (FOR PURE FINITE-DIFFERENCE OPTION, MIXELM=0) 
 = 0.1347    (WHEN MIN. R.F.=1)  AT K=   3, I=   2, J=  31


 TOTAL NUMBER OF POINT SOURCES/SINKS PRESENT IN THE FLOW MODEL =   240

 MAXIMUM STEPSIZE WHICH MEETS STABILITY CRITERION OF THE SINK & SOURCE TERM
 = 0.1000E+31(WHEN MIN. R.F.=1)  AT K=   0, I=   0, J=   0

 MAXIMUM STEPSIZE WHICH MEETS STABILITY CRITERION OF THE DISPERSION TERM
 = 0.7278E-02(WHEN MIN. R.F.=1)  AT K=   3, I=   2, J=  30
     1 CALLS TO GCG PACKAGE FOR TRANSPORT TIME STEP   3 IN FLOW TIME STEP  58 STRESS PERIOD   2
    14 TOTAL ITERATIONS
 
 SOLVING FOR HEAD 
 FLOW MODEL IS TRANSIENT
 FLOW MODEL CONTAINS CONSTANT-HEAD CELLS


 MAXIMUM STEPSIZE DURING WHICH ANY PARTICLE CANNOT MOVE MORE THAN ONE CELL
 = 0.1699    (WHEN MIN. R.F.=1)  AT K=   3, I=   2, J=  30

 MAXIMUM STEPSIZE WHICH MEETS STABILITY CRITERION OF THE ADVECTION TERM
 (FOR PURE FINITE-DIFFERENCE OPTION, MIXELM=0) 
 = 0.1347    (WHEN MIN. R.F.=1)  AT K=   3, I=   2, J=  31


 TOTAL NUMBER OF POINT SOURCES/SINKS PRESENT IN THE FLOW MODEL =   240

 MAXIMUM STEPSIZE WHICH MEETS STABILITY CRITERION OF THE SINK & SOURCE TERM
 = 0.1000E+31(WHEN MIN. R.F.=1)  AT K=   0, I=   0, J=   0

 MAXIMUM STEPSIZE WHICH MEETS STABILITY CRITERION OF THE DISPERSION TERM
 = 0.7278E-02(WHEN MIN. R.F.=1)  AT K=   3, I=   2, J=  30
     1 CALLS TO GCG PACKAGE FOR TRANSPORT TIME STEP   4 IN FLOW TIME STEP  58 STRESS PERIOD   2
    14 TOTAL ITERATIONS
 
 SOLVING FOR HEAD 
 FLOW MODEL IS TRANSIENT
 FLOW MODEL CONTAINS CONSTANT-HEAD CELLS


 MAXIMUM STEPSIZE DURING WHICH ANY PARTICLE CANNOT MOVE MORE THAN ONE CELL
 = 0.1699    (WHEN MIN. R.F.=1)  AT K=   3, I=   2, J=  30

 MAXIMUM STEPSIZE WHICH MEETS STABILITY CRITERION OF THE ADVECTION TERM
 (FOR PURE FINITE-DIFFERENCE OPTION, MIXELM=0) 
 = 0.1347    (WHEN MIN. R.F.=1)  AT K=   3, I=   2, J=  31


 TOTAL NUMBER OF POINT SOURCES/SINKS PRESENT IN THE FLOW MODEL =   240

 MAXIMUM STEPSIZE WHICH MEETS STABILITY CRITERION OF THE SINK & SOURCE TERM
 = 0.1000E+31(WHEN MIN. R.F.=1)  AT K=   0, I=   0, J=   0

 MAXIMUM STEPSIZE WHICH MEETS STABILITY CRITERION OF THE DISPERSION TERM
 = 0.7278E-02(WHEN MIN. R.F.=1)  AT K=   3, I=   2, J=  30
     1 CALLS TO GCG PACKAGE FOR TRANSPORT TIME STEP   5 IN FLOW TIME STEP  58 STRESS PERIOD   2
    14 TOTAL ITERATIONS
 
 SOLVING FOR HEAD 
 FLOW MODEL IS TRANSIENT
 FLOW MODEL CONTAINS CONSTANT-HEAD CELLS


 MAXIMUM STEPSIZE DURING WHICH ANY PARTICLE CANNOT MOVE MORE THAN ONE CELL
 = 0.1699    (WHEN MIN. R.F.=1)  AT K=   3, I=   2, J=  30

 MAXIMUM STEPSIZE WHICH MEETS STABILITY CRITERION OF THE ADVECTION TERM
 (FOR PURE FINITE-DIFFERENCE OPTION, MIXELM=0) 
 = 0.1347    (WHEN MIN. R.F.=1)  AT K=   3, I=   2, J=  31


 TOTAL NUMBER OF POINT SOURCES/SINKS PRESENT IN THE FLOW MODEL =   240

 MAXIMUM STEPSIZE WHICH MEETS STABILITY CRITERION OF THE SINK & SOURCE TERM
 = 0.1000E+31(WHEN MIN. R.F.=1)  AT K=   0, I=   0, J=   0

 MAXIMUM STEPSIZE WHICH MEETS STABILITY CRITERION OF THE DISPERSION TERM
 = 0.7278E-02(WHEN MIN. R.F.=1)  AT K=   3, I=   2, J=  30
     1 CALLS TO GCG PACKAGE FOR TRANSPORT TIME STEP   6 IN FLOW TIME STEP  58 STRESS PERIOD   2
    14 TOTAL ITERATIONS
 
 SOLVING FOR HEAD 
 FLOW MODEL IS TRANSIENT
 FLOW MODEL CONTAINS CONSTANT-HEAD CELLS


 MAXIMUM STEPSIZE DURING WHICH ANY PARTICLE CANNOT MOVE MORE THAN ONE CELL
 = 0.1699    (WHEN MIN. R.F.=1)  AT K=   3, I=   2, J=  30

 MAXIMUM STEPSIZE WHICH MEETS STABILITY CRITERION OF THE ADVECTION TERM
 (FOR PURE FINITE-DIFFERENCE OPTION, MIXELM=0) 
 = 0.1347    (WHEN MIN. R.F.=1)  AT K=   3, I=   2, J=  31


 TOTAL NUMBER OF POINT SOURCES/SINKS PRESENT IN THE FLOW MODEL =   240

 MAXIMUM STEPSIZE WHICH MEETS STABILITY CRITERION OF THE SINK & SOURCE TERM
 = 0.1000E+31(WHEN MIN. R.F.=1)  AT K=   0, I=   0, J=   0

 MAXIMUM STEPSIZE WHICH MEETS STABILITY CRITERION OF THE DISPERSION TERM
 = 0.7278E-02(WHEN MIN. R.F.=1)  AT K=   3, I=   2, J=  30
     1 CALLS TO GCG PACKAGE FOR TRANSPORT TIME STEP   7 IN FLOW TIME STEP  58 STRESS PERIOD   2
    14 TOTAL ITERATIONS
 
 SOLVING FOR HEAD 
 FLOW MODEL IS TRANSIENT
 FLOW MODEL CONTAINS CONSTANT-HEAD CELLS


 MAXIMUM STEPSIZE DURING WHICH ANY PARTICLE CANNOT MOVE MORE THAN ONE CELL
 = 0.1699    (WHEN MIN. R.F.=1)  AT K=   3, I=   2, J=  30

 MAXIMUM STEPSIZE WHICH MEETS STABILITY CRITERION OF THE ADVECTION TERM
 (FOR PURE FINITE-DIFFERENCE OPTION, MIXELM=0) 
 = 0.1347    (WHEN MIN. R.F.=1)  AT K=   3, I=   2, J=  31


 TOTAL NUMBER OF POINT SOURCES/SINKS PRESENT IN THE FLOW MODEL =   240

 MAXIMUM STEPSIZE WHICH MEETS STABILITY CRITERION OF THE SINK & SOURCE TERM
 = 0.1000E+31(WHEN MIN. R.F.=1)  AT K=   0, I=   0, J=   0

 MAXIMUM STEPSIZE WHICH MEETS STABILITY CRITERION OF THE DISPERSION TERM
 = 0.7278E-02(WHEN MIN. R.F.=1)  AT K=   3, I=   2, J=  30
     1 CALLS TO GCG PACKAGE FOR TRANSPORT TIME STEP   8 IN FLOW TIME STEP  58 STRESS PERIOD   2
    13 TOTAL ITERATIONS
  MAXIMUM CONCENTRATION CHANGES FOR EACH ITERATION:
  MAX. CHANGE LAYER,ROW,COL MAX. CHANGE LAYER,ROW,COL MAX. CHANGE LAYER,ROW,COL MAX. CHANGE LAYER,ROW,COL MAX. CHANGE LAYER,ROW,COL
 ------------------------------------------------------------------------------------------------------------------------------------
   0.9008E-03 ( 13,  1, 59)  0.1232E-03 (  9,  1, 57)  0.3262E-04 (  5,  2, 62)  0.1276E-04 (  8,  1, 59)  0.4799E-05 (  4,  2, 53)
   0.2878E-05 (  3,  3, 31)  0.2038E-05 (  4,  3, 31)  0.1339E-05 (  3,  3, 29)  0.8871E-06 (  4,  3, 29)  0.4877E-06 (  3,  3, 29)
   0.2693E-06 (  4,  3, 29)  0.1370E-06 (  4,  3, 30)  0.8297E-07 (  4,  3, 31)


                                          ================================================
                                                         FROM TIME =   59.000     TO    60.000    

 
 SOLVING FOR HEAD 
 FLOW MODEL IS TRANSIENT
 FLOW MODEL CONTAINS CONSTANT-HEAD CELLS


 MAXIMUM STEPSIZE DURING WHICH ANY PARTICLE CANNOT MOVE MORE THAN ONE CELL
 = 0.1699    (WHEN MIN. R.F.=1)  AT K=   3, I=   2, J=  30

 MAXIMUM STEPSIZE WHICH MEETS STABILITY CRITERION OF THE ADVECTION TERM
 (FOR PURE FINITE-DIFFERENCE OPTION, MIXELM=0) 
 = 0.1347    (WHEN MIN. R.F.=1)  AT K=   3, I=   2, J=  31


 TOTAL NUMBER OF POINT SOURCES/SINKS PRESENT IN THE FLOW MODEL =   240

 MAXIMUM STEPSIZE WHICH MEETS STABILITY CRITERION OF THE SINK & SOURCE TERM
 = 0.1000E+31(WHEN MIN. R.F.=1)  AT K=   0, I=   0, J=   0

 MAXIMUM STEPSIZE WHICH MEETS STABILITY CRITERION OF THE DISPERSION TERM
 = 0.7278E-02(WHEN MIN. R.F.=1)  AT K=   3, I=   2, J=  30


     1 CALLS TO GCG PACKAGE FOR TRANSPORT TIME STEP   1 IN FLOW TIME STEP  59 STRESS PERIOD   2
    14 TOTAL ITERATIONS

 NO OUTPUT CONTROL FOR STRESS PERIOD    2   TIME STEP  59
 
 SOLVING FOR HEAD 
 FLOW MODEL IS TRANSIENT
 FLOW MODEL CONTAINS CONSTANT-HEAD CELLS


 MAXIMUM STEPSIZE DURING WHICH ANY PARTICLE CANNOT MOVE MORE THAN ONE CELL
 = 0.1699    (WHEN MIN. R.F.=1)  AT K=   3, I=   2, J=  30

 MAXIMUM STEPSIZE WHICH MEETS STABILITY CRITERION OF THE ADVECTION TERM
 (FOR PURE FINITE-DIFFERENCE OPTION, MIXELM=0) 
 = 0.1347    (WHEN MIN. R.F.=1)  AT K=   3, I=   2, J=  31


 TOTAL NUMBER OF POINT SOURCES/SINKS PRESENT IN THE FLOW MODEL =   240

 MAXIMUM STEPSIZE WHICH MEETS STABILITY CRITERION OF THE SINK & SOURCE TERM
 = 0.1000E+31(WHEN MIN. R.F.=1)  AT K=   0, I=   0, J=   0

 MAXIMUM STEPSIZE WHICH MEETS STABILITY CRITERION OF THE DISPERSION TERM
 = 0.7278E-02(WHEN MIN. R.F.=1)  AT K=   3, I=   2, J=  30
     1 CALLS TO GCG PACKAGE FOR TRANSPORT TIME STEP   2 IN FLOW TIME STEP  59 STRESS PERIOD   2
    14 TOTAL ITERATIONS
 
 SOLVING FOR HEAD 
 FLOW MODEL IS TRANSIENT
 FLOW MODEL CONTAINS CONSTANT-HEAD CELLS


 MAXIMUM STEPSIZE DURING WHICH ANY PARTICLE CANNOT MOVE MORE THAN ONE CELL
 = 0.1699    (WHEN MIN. R.F.=1)  AT K=   3, I=   2, J=  30

 MAXIMUM STEPSIZE WHICH MEETS STABILITY CRITERION OF THE ADVECTION TERM
 (FOR PURE FINITE-DIFFERENCE OPTION, MIXELM=0) 
 = 0.1347    (WHEN MIN. R.F.=1)  AT K=   3, I=   2, J=  31


 TOTAL NUMBER OF POINT SOURCES/SINKS PRESENT IN THE FLOW MODEL =   240

 MAXIMUM STEPSIZE WHICH MEETS STABILITY CRITERION OF THE SINK & SOURCE TERM
 = 0.1000E+31(WHEN MIN. R.F.=1)  AT K=   0, I=   0, J=   0

 MAXIMUM STEPSIZE WHICH MEETS STABILITY CRITERION OF THE DISPERSION TERM
 = 0.7278E-02(WHEN MIN. R.F.=1)  AT K=   3, I=   2, J=  30
     1 CALLS TO GCG PACKAGE FOR TRANSPORT TIME STEP   3 IN FLOW TIME STEP  59 STRESS PERIOD   2
    14 TOTAL ITERATIONS
 
 SOLVING FOR HEAD 
 FLOW MODEL IS TRANSIENT
 FLOW MODEL CONTAINS CONSTANT-HEAD CELLS


 MAXIMUM STEPSIZE DURING WHICH ANY PARTICLE CANNOT MOVE MORE THAN ONE CELL
 = 0.1699    (WHEN MIN. R.F.=1)  AT K=   3, I=   2, J=  30

 MAXIMUM STEPSIZE WHICH MEETS STABILITY CRITERION OF THE ADVECTION TERM
 (FOR PURE FINITE-DIFFERENCE OPTION, MIXELM=0) 
 = 0.1347    (WHEN MIN. R.F.=1)  AT K=   3, I=   2, J=  31


 TOTAL NUMBER OF POINT SOURCES/SINKS PRESENT IN THE FLOW MODEL =   240

 MAXIMUM STEPSIZE WHICH MEETS STABILITY CRITERION OF THE SINK & SOURCE TERM
 = 0.1000E+31(WHEN MIN. R.F.=1)  AT K=   0, I=   0, J=   0

 MAXIMUM STEPSIZE WHICH MEETS STABILITY CRITERION OF THE DISPERSION TERM
 = 0.7278E-02(WHEN MIN. R.F.=1)  AT K=   3, I=   2, J=  30
     1 CALLS TO GCG PACKAGE FOR TRANSPORT TIME STEP   4 IN FLOW TIME STEP  59 STRESS PERIOD   2
    14 TOTAL ITERATIONS
 
 SOLVING FOR HEAD 
 FLOW MODEL IS TRANSIENT
 FLOW MODEL CONTAINS CONSTANT-HEAD CELLS


 MAXIMUM STEPSIZE DURING WHICH ANY PARTICLE CANNOT MOVE MORE THAN ONE CELL
 = 0.1699    (WHEN MIN. R.F.=1)  AT K=   3, I=   2, J=  30

 MAXIMUM STEPSIZE WHICH MEETS STABILITY CRITERION OF THE ADVECTION TERM
 (FOR PURE FINITE-DIFFERENCE OPTION, MIXELM=0) 
 = 0.1347    (WHEN MIN. R.F.=1)  AT K=   3, I=   2, J=  31


 TOTAL NUMBER OF POINT SOURCES/SINKS PRESENT IN THE FLOW MODEL =   240

 MAXIMUM STEPSIZE WHICH MEETS STABILITY CRITERION OF THE SINK & SOURCE TERM
 = 0.1000E+31(WHEN MIN. R.F.=1)  AT K=   0, I=   0, J=   0

 MAXIMUM STEPSIZE WHICH MEETS STABILITY CRITERION OF THE DISPERSION TERM
 = 0.7278E-02(WHEN MIN. R.F.=1)  AT K=   3, I=   2, J=  30
     1 CALLS TO GCG PACKAGE FOR TRANSPORT TIME STEP   5 IN FLOW TIME STEP  59 STRESS PERIOD   2
    14 TOTAL ITERATIONS
 
 SOLVING FOR HEAD 
 FLOW MODEL IS TRANSIENT
 FLOW MODEL CONTAINS CONSTANT-HEAD CELLS


 MAXIMUM STEPSIZE DURING WHICH ANY PARTICLE CANNOT MOVE MORE THAN ONE CELL
 = 0.1699    (WHEN MIN. R.F.=1)  AT K=   3, I=   2, J=  30

 MAXIMUM STEPSIZE WHICH MEETS STABILITY CRITERION OF THE ADVECTION TERM
 (FOR PURE FINITE-DIFFERENCE OPTION, MIXELM=0) 
 = 0.1347    (WHEN MIN. R.F.=1)  AT K=   3, I=   2, J=  31


 TOTAL NUMBER OF POINT SOURCES/SINKS PRESENT IN THE FLOW MODEL =   240

 MAXIMUM STEPSIZE WHICH MEETS STABILITY CRITERION OF THE SINK & SOURCE TERM
 = 0.1000E+31(WHEN MIN. R.F.=1)  AT K=   0, I=   0, J=   0

 MAXIMUM STEPSIZE WHICH MEETS STABILITY CRITERION OF THE DISPERSION TERM
 = 0.7278E-02(WHEN MIN. R.F.=1)  AT K=   3, I=   2, J=  30
     1 CALLS TO GCG PACKAGE FOR TRANSPORT TIME STEP   6 IN FLOW TIME STEP  59 STRESS PERIOD   2
    14 TOTAL ITERATIONS
 
 SOLVING FOR HEAD 
 FLOW MODEL IS TRANSIENT
 FLOW MODEL CONTAINS CONSTANT-HEAD CELLS


 MAXIMUM STEPSIZE DURING WHICH ANY PARTICLE CANNOT MOVE MORE THAN ONE CELL
 = 0.1699    (WHEN MIN. R.F.=1)  AT K=   3, I=   2, J=  30

 MAXIMUM STEPSIZE WHICH MEETS STABILITY CRITERION OF THE ADVECTION TERM
 (FOR PURE FINITE-DIFFERENCE OPTION, MIXELM=0) 
 = 0.1347    (WHEN MIN. R.F.=1)  AT K=   3, I=   2, J=  31


 TOTAL NUMBER OF POINT SOURCES/SINKS PRESENT IN THE FLOW MODEL =   240

 MAXIMUM STEPSIZE WHICH MEETS STABILITY CRITERION OF THE SINK & SOURCE TERM
 = 0.1000E+31(WHEN MIN. R.F.=1)  AT K=   0, I=   0, J=   0

 MAXIMUM STEPSIZE WHICH MEETS STABILITY CRITERION OF THE DISPERSION TERM
 = 0.7277E-02(WHEN MIN. R.F.=1)  AT K=   3, I=   2, J=  30
     1 CALLS TO GCG PACKAGE FOR TRANSPORT TIME STEP   7 IN FLOW TIME STEP  59 STRESS PERIOD   2
    14 TOTAL ITERATIONS
 
 SOLVING FOR HEAD 
 FLOW MODEL IS TRANSIENT
 FLOW MODEL CONTAINS CONSTANT-HEAD CELLS


 MAXIMUM STEPSIZE DURING WHICH ANY PARTICLE CANNOT MOVE MORE THAN ONE CELL
 = 0.1699    (WHEN MIN. R.F.=1)  AT K=   3, I=   2, J=  30

 MAXIMUM STEPSIZE WHICH MEETS STABILITY CRITERION OF THE ADVECTION TERM
 (FOR PURE FINITE-DIFFERENCE OPTION, MIXELM=0) 
 = 0.1347    (WHEN MIN. R.F.=1)  AT K=   3, I=   2, J=  31


 TOTAL NUMBER OF POINT SOURCES/SINKS PRESENT IN THE FLOW MODEL =   240

 MAXIMUM STEPSIZE WHICH MEETS STABILITY CRITERION OF THE SINK & SOURCE TERM
 = 0.1000E+31(WHEN MIN. R.F.=1)  AT K=   0, I=   0, J=   0

 MAXIMUM STEPSIZE WHICH MEETS STABILITY CRITERION OF THE DISPERSION TERM
 = 0.7277E-02(WHEN MIN. R.F.=1)  AT K=   3, I=   2, J=  30
     1 CALLS TO GCG PACKAGE FOR TRANSPORT TIME STEP   8 IN FLOW TIME STEP  59 STRESS PERIOD   2
    13 TOTAL ITERATIONS
  MAXIMUM CONCENTRATION CHANGES FOR EACH ITERATION:
  MAX. CHANGE LAYER,ROW,COL MAX. CHANGE LAYER,ROW,COL MAX. CHANGE LAYER,ROW,COL MAX. CHANGE LAYER,ROW,COL MAX. CHANGE LAYER,ROW,COL
 ------------------------------------------------------------------------------------------------------------------------------------
   0.8787E-03 ( 13,  1, 59)  0.1197E-03 (  9,  1, 57)  0.3157E-04 (  5,  2, 62)  0.1234E-04 (  8,  1, 59)  0.4621E-05 (  4,  2, 53)
   0.2672E-05 (  3,  3, 31)  0.1907E-05 (  4,  3, 31)  0.1261E-05 (  3,  3, 29)  0.8412E-06 (  4,  3, 29)  0.4635E-06 (  3,  3, 29)
   0.2574E-06 (  4,  3, 29)  0.1311E-06 (  4,  3, 30)  0.7908E-07 (  4,  3, 31)


                                          ================================================
                                                         FROM TIME =   60.000     TO    61.000    

 
 SOLVING FOR HEAD 
 FLOW MODEL IS TRANSIENT
 FLOW MODEL CONTAINS CONSTANT-HEAD CELLS


 MAXIMUM STEPSIZE DURING WHICH ANY PARTICLE CANNOT MOVE MORE THAN ONE CELL
 = 0.1699    (WHEN MIN. R.F.=1)  AT K=   3, I=   2, J=  30

 MAXIMUM STEPSIZE WHICH MEETS STABILITY CRITERION OF THE ADVECTION TERM
 (FOR PURE FINITE-DIFFERENCE OPTION, MIXELM=0) 
 = 0.1347    (WHEN MIN. R.F.=1)  AT K=   3, I=   2, J=  31


 TOTAL NUMBER OF POINT SOURCES/SINKS PRESENT IN THE FLOW MODEL =   240

 MAXIMUM STEPSIZE WHICH MEETS STABILITY CRITERION OF THE SINK & SOURCE TERM
 = 0.1000E+31(WHEN MIN. R.F.=1)  AT K=   0, I=   0, J=   0

 MAXIMUM STEPSIZE WHICH MEETS STABILITY CRITERION OF THE DISPERSION TERM
 = 0.7277E-02(WHEN MIN. R.F.=1)  AT K=   3, I=   2, J=  30


     1 CALLS TO GCG PACKAGE FOR TRANSPORT TIME STEP   1 IN FLOW TIME STEP  60 STRESS PERIOD   2
    14 TOTAL ITERATIONS

 NO OUTPUT CONTROL FOR STRESS PERIOD    2   TIME STEP  60
 
 SOLVING FOR HEAD 
 FLOW MODEL IS TRANSIENT
 FLOW MODEL CONTAINS CONSTANT-HEAD CELLS


 MAXIMUM STEPSIZE DURING WHICH ANY PARTICLE CANNOT MOVE MORE THAN ONE CELL
 = 0.1699    (WHEN MIN. R.F.=1)  AT K=   3, I=   2, J=  30

 MAXIMUM STEPSIZE WHICH MEETS STABILITY CRITERION OF THE ADVECTION TERM
 (FOR PURE FINITE-DIFFERENCE OPTION, MIXELM=0) 
 = 0.1347    (WHEN MIN. R.F.=1)  AT K=   3, I=   2, J=  31


 TOTAL NUMBER OF POINT SOURCES/SINKS PRESENT IN THE FLOW MODEL =   240

 MAXIMUM STEPSIZE WHICH MEETS STABILITY CRITERION OF THE SINK & SOURCE TERM
 = 0.1000E+31(WHEN MIN. R.F.=1)  AT K=   0, I=   0, J=   0

 MAXIMUM STEPSIZE WHICH MEETS STABILITY CRITERION OF THE DISPERSION TERM
 = 0.7277E-02(WHEN MIN. R.F.=1)  AT K=   3, I=   2, J=  30
     1 CALLS TO GCG PACKAGE FOR TRANSPORT TIME STEP   2 IN FLOW TIME STEP  60 STRESS PERIOD   2
    14 TOTAL ITERATIONS
 
 SOLVING FOR HEAD 
 FLOW MODEL IS TRANSIENT
 FLOW MODEL CONTAINS CONSTANT-HEAD CELLS


 MAXIMUM STEPSIZE DURING WHICH ANY PARTICLE CANNOT MOVE MORE THAN ONE CELL
 = 0.1699    (WHEN MIN. R.F.=1)  AT K=   3, I=   2, J=  30

 MAXIMUM STEPSIZE WHICH MEETS STABILITY CRITERION OF THE ADVECTION TERM
 (FOR PURE FINITE-DIFFERENCE OPTION, MIXELM=0) 
 = 0.1347    (WHEN MIN. R.F.=1)  AT K=   3, I=   2, J=  31


 TOTAL NUMBER OF POINT SOURCES/SINKS PRESENT IN THE FLOW MODEL =   240

 MAXIMUM STEPSIZE WHICH MEETS STABILITY CRITERION OF THE SINK & SOURCE TERM
 = 0.1000E+31(WHEN MIN. R.F.=1)  AT K=   0, I=   0, J=   0

 MAXIMUM STEPSIZE WHICH MEETS STABILITY CRITERION OF THE DISPERSION TERM
 = 0.7277E-02(WHEN MIN. R.F.=1)  AT K=   3, I=   2, J=  30
     1 CALLS TO GCG PACKAGE FOR TRANSPORT TIME STEP   3 IN FLOW TIME STEP  60 STRESS PERIOD   2
    14 TOTAL ITERATIONS
 
 SOLVING FOR HEAD 
 FLOW MODEL IS TRANSIENT
 FLOW MODEL CONTAINS CONSTANT-HEAD CELLS


 MAXIMUM STEPSIZE DURING WHICH ANY PARTICLE CANNOT MOVE MORE THAN ONE CELL
 = 0.1699    (WHEN MIN. R.F.=1)  AT K=   3, I=   2, J=  30

 MAXIMUM STEPSIZE WHICH MEETS STABILITY CRITERION OF THE ADVECTION TERM
 (FOR PURE FINITE-DIFFERENCE OPTION, MIXELM=0) 
 = 0.1347    (WHEN MIN. R.F.=1)  AT K=   3, I=   2, J=  31


 TOTAL NUMBER OF POINT SOURCES/SINKS PRESENT IN THE FLOW MODEL =   240

 MAXIMUM STEPSIZE WHICH MEETS STABILITY CRITERION OF THE SINK & SOURCE TERM
 = 0.1000E+31(WHEN MIN. R.F.=1)  AT K=   0, I=   0, J=   0

 MAXIMUM STEPSIZE WHICH MEETS STABILITY CRITERION OF THE DISPERSION TERM
 = 0.7277E-02(WHEN MIN. R.F.=1)  AT K=   3, I=   2, J=  30
     1 CALLS TO GCG PACKAGE FOR TRANSPORT TIME STEP   4 IN FLOW TIME STEP  60 STRESS PERIOD   2
    14 TOTAL ITERATIONS
 
 SOLVING FOR HEAD 
 FLOW MODEL IS TRANSIENT
 FLOW MODEL CONTAINS CONSTANT-HEAD CELLS


 MAXIMUM STEPSIZE DURING WHICH ANY PARTICLE CANNOT MOVE MORE THAN ONE CELL
 = 0.1699    (WHEN MIN. R.F.=1)  AT K=   3, I=   2, J=  30

 MAXIMUM STEPSIZE WHICH MEETS STABILITY CRITERION OF THE ADVECTION TERM
 (FOR PURE FINITE-DIFFERENCE OPTION, MIXELM=0) 
 = 0.1347    (WHEN MIN. R.F.=1)  AT K=   3, I=   2, J=  31


 TOTAL NUMBER OF POINT SOURCES/SINKS PRESENT IN THE FLOW MODEL =   240

 MAXIMUM STEPSIZE WHICH MEETS STABILITY CRITERION OF THE SINK & SOURCE TERM
 = 0.1000E+31(WHEN MIN. R.F.=1)  AT K=   0, I=   0, J=   0

 MAXIMUM STEPSIZE WHICH MEETS STABILITY CRITERION OF THE DISPERSION TERM
 = 0.7277E-02(WHEN MIN. R.F.=1)  AT K=   3, I=   2, J=  30
     1 CALLS TO GCG PACKAGE FOR TRANSPORT TIME STEP   5 IN FLOW TIME STEP  60 STRESS PERIOD   2
    14 TOTAL ITERATIONS
 
 SOLVING FOR HEAD 
 FLOW MODEL IS TRANSIENT
 FLOW MODEL CONTAINS CONSTANT-HEAD CELLS


 MAXIMUM STEPSIZE DURING WHICH ANY PARTICLE CANNOT MOVE MORE THAN ONE CELL
 = 0.1699    (WHEN MIN. R.F.=1)  AT K=   3, I=   2, J=  30

 MAXIMUM STEPSIZE WHICH MEETS STABILITY CRITERION OF THE ADVECTION TERM
 (FOR PURE FINITE-DIFFERENCE OPTION, MIXELM=0) 
 = 0.1347    (WHEN MIN. R.F.=1)  AT K=   3, I=   2, J=  31


 TOTAL NUMBER OF POINT SOURCES/SINKS PRESENT IN THE FLOW MODEL =   240

 MAXIMUM STEPSIZE WHICH MEETS STABILITY CRITERION OF THE SINK & SOURCE TERM
 = 0.1000E+31(WHEN MIN. R.F.=1)  AT K=   0, I=   0, J=   0

 MAXIMUM STEPSIZE WHICH MEETS STABILITY CRITERION OF THE DISPERSION TERM
 = 0.7277E-02(WHEN MIN. R.F.=1)  AT K=   3, I=   2, J=  30
     1 CALLS TO GCG PACKAGE FOR TRANSPORT TIME STEP   6 IN FLOW TIME STEP  60 STRESS PERIOD   2
    14 TOTAL ITERATIONS
 
 SOLVING FOR HEAD 
 FLOW MODEL IS TRANSIENT
 FLOW MODEL CONTAINS CONSTANT-HEAD CELLS


 MAXIMUM STEPSIZE DURING WHICH ANY PARTICLE CANNOT MOVE MORE THAN ONE CELL
 = 0.1699    (WHEN MIN. R.F.=1)  AT K=   3, I=   2, J=  30

 MAXIMUM STEPSIZE WHICH MEETS STABILITY CRITERION OF THE ADVECTION TERM
 (FOR PURE FINITE-DIFFERENCE OPTION, MIXELM=0) 
 = 0.1347    (WHEN MIN. R.F.=1)  AT K=   3, I=   2, J=  31


 TOTAL NUMBER OF POINT SOURCES/SINKS PRESENT IN THE FLOW MODEL =   240

 MAXIMUM STEPSIZE WHICH MEETS STABILITY CRITERION OF THE SINK & SOURCE TERM
 = 0.1000E+31(WHEN MIN. R.F.=1)  AT K=   0, I=   0, J=   0

 MAXIMUM STEPSIZE WHICH MEETS STABILITY CRITERION OF THE DISPERSION TERM
 = 0.7277E-02(WHEN MIN. R.F.=1)  AT K=   3, I=   2, J=  30
     1 CALLS TO GCG PACKAGE FOR TRANSPORT TIME STEP   7 IN FLOW TIME STEP  60 STRESS PERIOD   2
    14 TOTAL ITERATIONS
 
 SOLVING FOR HEAD 
 FLOW MODEL IS TRANSIENT
 FLOW MODEL CONTAINS CONSTANT-HEAD CELLS


 MAXIMUM STEPSIZE DURING WHICH ANY PARTICLE CANNOT MOVE MORE THAN ONE CELL
 = 0.1699    (WHEN MIN. R.F.=1)  AT K=   3, I=   2, J=  30

 MAXIMUM STEPSIZE WHICH MEETS STABILITY CRITERION OF THE ADVECTION TERM
 (FOR PURE FINITE-DIFFERENCE OPTION, MIXELM=0) 
 = 0.1347    (WHEN MIN. R.F.=1)  AT K=   3, I=   2, J=  31


 TOTAL NUMBER OF POINT SOURCES/SINKS PRESENT IN THE FLOW MODEL =   240

 MAXIMUM STEPSIZE WHICH MEETS STABILITY CRITERION OF THE SINK & SOURCE TERM
 = 0.1000E+31(WHEN MIN. R.F.=1)  AT K=   0, I=   0, J=   0

 MAXIMUM STEPSIZE WHICH MEETS STABILITY CRITERION OF THE DISPERSION TERM
 = 0.7277E-02(WHEN MIN. R.F.=1)  AT K=   3, I=   2, J=  30
     1 CALLS TO GCG PACKAGE FOR TRANSPORT TIME STEP   8 IN FLOW TIME STEP  60 STRESS PERIOD   2
    13 TOTAL ITERATIONS
  MAXIMUM CONCENTRATION CHANGES FOR EACH ITERATION:
  MAX. CHANGE LAYER,ROW,COL MAX. CHANGE LAYER,ROW,COL MAX. CHANGE LAYER,ROW,COL MAX. CHANGE LAYER,ROW,COL MAX. CHANGE LAYER,ROW,COL
 ------------------------------------------------------------------------------------------------------------------------------------
   0.8559E-03 ( 13,  1, 59)  0.1163E-03 (  9,  1, 57)  0.3057E-04 (  5,  2, 62)  0.1194E-04 (  8,  1, 59)  0.4451E-05 (  4,  2, 53)
   0.2460E-05 (  3,  3, 31)  0.1772E-05 (  4,  3, 31)  0.1180E-05 (  3,  3, 29)  0.7939E-06 (  4,  3, 29)  0.4390E-06 (  3,  3, 29)
   0.2455E-06 (  4,  3, 29)  0.1253E-06 (  4,  3, 30)  0.7520E-07 (  4,  3, 31)


                                          ================================================
                                                         FROM TIME =   61.000     TO    62.000    

 
 SOLVING FOR HEAD 
 FLOW MODEL IS TRANSIENT
 FLOW MODEL CONTAINS CONSTANT-HEAD CELLS


 MAXIMUM STEPSIZE DURING WHICH ANY PARTICLE CANNOT MOVE MORE THAN ONE CELL
 = 0.1699    (WHEN MIN. R.F.=1)  AT K=   3, I=   2, J=  30

 MAXIMUM STEPSIZE WHICH MEETS STABILITY CRITERION OF THE ADVECTION TERM
 (FOR PURE FINITE-DIFFERENCE OPTION, MIXELM=0) 
 = 0.1347    (WHEN MIN. R.F.=1)  AT K=   3, I=   2, J=  31


 TOTAL NUMBER OF POINT SOURCES/SINKS PRESENT IN THE FLOW MODEL =   240

 MAXIMUM STEPSIZE WHICH MEETS STABILITY CRITERION OF THE SINK & SOURCE TERM
 = 0.1000E+31(WHEN MIN. R.F.=1)  AT K=   0, I=   0, J=   0

 MAXIMUM STEPSIZE WHICH MEETS STABILITY CRITERION OF THE DISPERSION TERM
 = 0.7277E-02(WHEN MIN. R.F.=1)  AT K=   3, I=   2, J=  30


     1 CALLS TO GCG PACKAGE FOR TRANSPORT TIME STEP   1 IN FLOW TIME STEP  61 STRESS PERIOD   2
    14 TOTAL ITERATIONS

 NO OUTPUT CONTROL FOR STRESS PERIOD    2   TIME STEP  61
 
 SOLVING FOR HEAD 
 FLOW MODEL IS TRANSIENT
 FLOW MODEL CONTAINS CONSTANT-HEAD CELLS


 MAXIMUM STEPSIZE DURING WHICH ANY PARTICLE CANNOT MOVE MORE THAN ONE CELL
 = 0.1699    (WHEN MIN. R.F.=1)  AT K=   3, I=   2, J=  30

 MAXIMUM STEPSIZE WHICH MEETS STABILITY CRITERION OF THE ADVECTION TERM
 (FOR PURE FINITE-DIFFERENCE OPTION, MIXELM=0) 
 = 0.1347    (WHEN MIN. R.F.=1)  AT K=   3, I=   2, J=  31


 TOTAL NUMBER OF POINT SOURCES/SINKS PRESENT IN THE FLOW MODEL =   240

 MAXIMUM STEPSIZE WHICH MEETS STABILITY CRITERION OF THE SINK & SOURCE TERM
 = 0.1000E+31(WHEN MIN. R.F.=1)  AT K=   0, I=   0, J=   0

 MAXIMUM STEPSIZE WHICH MEETS STABILITY CRITERION OF THE DISPERSION TERM
 = 0.7277E-02(WHEN MIN. R.F.=1)  AT K=   3, I=   2, J=  30
     1 CALLS TO GCG PACKAGE FOR TRANSPORT TIME STEP   2 IN FLOW TIME STEP  61 STRESS PERIOD   2
    14 TOTAL ITERATIONS
 
 SOLVING FOR HEAD 
 FLOW MODEL IS TRANSIENT
 FLOW MODEL CONTAINS CONSTANT-HEAD CELLS


 MAXIMUM STEPSIZE DURING WHICH ANY PARTICLE CANNOT MOVE MORE THAN ONE CELL
 = 0.1699    (WHEN MIN. R.F.=1)  AT K=   3, I=   2, J=  30

 MAXIMUM STEPSIZE WHICH MEETS STABILITY CRITERION OF THE ADVECTION TERM
 (FOR PURE FINITE-DIFFERENCE OPTION, MIXELM=0) 
 = 0.1347    (WHEN MIN. R.F.=1)  AT K=   3, I=   2, J=  31


 TOTAL NUMBER OF POINT SOURCES/SINKS PRESENT IN THE FLOW MODEL =   240

 MAXIMUM STEPSIZE WHICH MEETS STABILITY CRITERION OF THE SINK & SOURCE TERM
 = 0.1000E+31(WHEN MIN. R.F.=1)  AT K=   0, I=   0, J=   0

 MAXIMUM STEPSIZE WHICH MEETS STABILITY CRITERION OF THE DISPERSION TERM
 = 0.7277E-02(WHEN MIN. R.F.=1)  AT K=   3, I=   2, J=  30
     1 CALLS TO GCG PACKAGE FOR TRANSPORT TIME STEP   3 IN FLOW TIME STEP  61 STRESS PERIOD   2
    14 TOTAL ITERATIONS
 
 SOLVING FOR HEAD 
 FLOW MODEL IS TRANSIENT
 FLOW MODEL CONTAINS CONSTANT-HEAD CELLS


 MAXIMUM STEPSIZE DURING WHICH ANY PARTICLE CANNOT MOVE MORE THAN ONE CELL
 = 0.1699    (WHEN MIN. R.F.=1)  AT K=   3, I=   2, J=  30

 MAXIMUM STEPSIZE WHICH MEETS STABILITY CRITERION OF THE ADVECTION TERM
 (FOR PURE FINITE-DIFFERENCE OPTION, MIXELM=0) 
 = 0.1347    (WHEN MIN. R.F.=1)  AT K=   3, I=   2, J=  31


 TOTAL NUMBER OF POINT SOURCES/SINKS PRESENT IN THE FLOW MODEL =   240

 MAXIMUM STEPSIZE WHICH MEETS STABILITY CRITERION OF THE SINK & SOURCE TERM
 = 0.1000E+31(WHEN MIN. R.F.=1)  AT K=   0, I=   0, J=   0

 MAXIMUM STEPSIZE WHICH MEETS STABILITY CRITERION OF THE DISPERSION TERM
 = 0.7277E-02(WHEN MIN. R.F.=1)  AT K=   3, I=   2, J=  30
     1 CALLS TO GCG PACKAGE FOR TRANSPORT TIME STEP   4 IN FLOW TIME STEP  61 STRESS PERIOD   2
    14 TOTAL ITERATIONS
 
 SOLVING FOR HEAD 
 FLOW MODEL IS TRANSIENT
 FLOW MODEL CONTAINS CONSTANT-HEAD CELLS


 MAXIMUM STEPSIZE DURING WHICH ANY PARTICLE CANNOT MOVE MORE THAN ONE CELL
 = 0.1699    (WHEN MIN. R.F.=1)  AT K=   3, I=   2, J=  30

 MAXIMUM STEPSIZE WHICH MEETS STABILITY CRITERION OF THE ADVECTION TERM
 (FOR PURE FINITE-DIFFERENCE OPTION, MIXELM=0) 
 = 0.1347    (WHEN MIN. R.F.=1)  AT K=   3, I=   2, J=  31


 TOTAL NUMBER OF POINT SOURCES/SINKS PRESENT IN THE FLOW MODEL =   240

 MAXIMUM STEPSIZE WHICH MEETS STABILITY CRITERION OF THE SINK & SOURCE TERM
 = 0.1000E+31(WHEN MIN. R.F.=1)  AT K=   0, I=   0, J=   0

 MAXIMUM STEPSIZE WHICH MEETS STABILITY CRITERION OF THE DISPERSION TERM
 = 0.7277E-02(WHEN MIN. R.F.=1)  AT K=   3, I=   2, J=  30
     1 CALLS TO GCG PACKAGE FOR TRANSPORT TIME STEP   5 IN FLOW TIME STEP  61 STRESS PERIOD   2
    14 TOTAL ITERATIONS
 
 SOLVING FOR HEAD 
 FLOW MODEL IS TRANSIENT
 FLOW MODEL CONTAINS CONSTANT-HEAD CELLS


 MAXIMUM STEPSIZE DURING WHICH ANY PARTICLE CANNOT MOVE MORE THAN ONE CELL
 = 0.1699    (WHEN MIN. R.F.=1)  AT K=   3, I=   2, J=  30

 MAXIMUM STEPSIZE WHICH MEETS STABILITY CRITERION OF THE ADVECTION TERM
 (FOR PURE FINITE-DIFFERENCE OPTION, MIXELM=0) 
 = 0.1347    (WHEN MIN. R.F.=1)  AT K=   3, I=   2, J=  31


 TOTAL NUMBER OF POINT SOURCES/SINKS PRESENT IN THE FLOW MODEL =   240

 MAXIMUM STEPSIZE WHICH MEETS STABILITY CRITERION OF THE SINK & SOURCE TERM
 = 0.1000E+31(WHEN MIN. R.F.=1)  AT K=   0, I=   0, J=   0

 MAXIMUM STEPSIZE WHICH MEETS STABILITY CRITERION OF THE DISPERSION TERM
 = 0.7277E-02(WHEN MIN. R.F.=1)  AT K=   3, I=   2, J=  30
     1 CALLS TO GCG PACKAGE FOR TRANSPORT TIME STEP   6 IN FLOW TIME STEP  61 STRESS PERIOD   2
    14 TOTAL ITERATIONS
 
 SOLVING FOR HEAD 
 FLOW MODEL IS TRANSIENT
 FLOW MODEL CONTAINS CONSTANT-HEAD CELLS


 MAXIMUM STEPSIZE DURING WHICH ANY PARTICLE CANNOT MOVE MORE THAN ONE CELL
 = 0.1699    (WHEN MIN. R.F.=1)  AT K=   3, I=   2, J=  30

 MAXIMUM STEPSIZE WHICH MEETS STABILITY CRITERION OF THE ADVECTION TERM
 (FOR PURE FINITE-DIFFERENCE OPTION, MIXELM=0) 
 = 0.1347    (WHEN MIN. R.F.=1)  AT K=   3, I=   2, J=  31


 TOTAL NUMBER OF POINT SOURCES/SINKS PRESENT IN THE FLOW MODEL =   240

 MAXIMUM STEPSIZE WHICH MEETS STABILITY CRITERION OF THE SINK & SOURCE TERM
 = 0.1000E+31(WHEN MIN. R.F.=1)  AT K=   0, I=   0, J=   0

 MAXIMUM STEPSIZE WHICH MEETS STABILITY CRITERION OF THE DISPERSION TERM
 = 0.7277E-02(WHEN MIN. R.F.=1)  AT K=   3, I=   2, J=  30
     1 CALLS TO GCG PACKAGE FOR TRANSPORT TIME STEP   7 IN FLOW TIME STEP  61 STRESS PERIOD   2
    14 TOTAL ITERATIONS
 
 SOLVING FOR HEAD 
 FLOW MODEL IS TRANSIENT
 FLOW MODEL CONTAINS CONSTANT-HEAD CELLS


 MAXIMUM STEPSIZE DURING WHICH ANY PARTICLE CANNOT MOVE MORE THAN ONE CELL
 = 0.1699    (WHEN MIN. R.F.=1)  AT K=   3, I=   2, J=  30

 MAXIMUM STEPSIZE WHICH MEETS STABILITY CRITERION OF THE ADVECTION TERM
 (FOR PURE FINITE-DIFFERENCE OPTION, MIXELM=0) 
 = 0.1347    (WHEN MIN. R.F.=1)  AT K=   3, I=   2, J=  31


 TOTAL NUMBER OF POINT SOURCES/SINKS PRESENT IN THE FLOW MODEL =   240

 MAXIMUM STEPSIZE WHICH MEETS STABILITY CRITERION OF THE SINK & SOURCE TERM
 = 0.1000E+31(WHEN MIN. R.F.=1)  AT K=   0, I=   0, J=   0

 MAXIMUM STEPSIZE WHICH MEETS STABILITY CRITERION OF THE DISPERSION TERM
 = 0.7277E-02(WHEN MIN. R.F.=1)  AT K=   3, I=   2, J=  30
     1 CALLS TO GCG PACKAGE FOR TRANSPORT TIME STEP   8 IN FLOW TIME STEP  61 STRESS PERIOD   2
    13 TOTAL ITERATIONS
  MAXIMUM CONCENTRATION CHANGES FOR EACH ITERATION:
  MAX. CHANGE LAYER,ROW,COL MAX. CHANGE LAYER,ROW,COL MAX. CHANGE LAYER,ROW,COL MAX. CHANGE LAYER,ROW,COL MAX. CHANGE LAYER,ROW,COL
 ------------------------------------------------------------------------------------------------------------------------------------
   0.8327E-03 ( 13,  1, 59)  0.1129E-03 (  9,  1, 57)  0.2960E-04 (  5,  2, 62)  0.1154E-04 (  8,  1, 59)  0.4287E-05 (  4,  2, 53)
   0.2258E-05 (  7,  1, 59)  0.1635E-05 (  4,  3, 31)  0.1099E-05 (  3,  3, 29)  0.7457E-06 (  4,  3, 29)  0.4144E-06 (  3,  3, 29)
   0.2337E-06 (  4,  3, 29)  0.1196E-06 (  4,  3, 30)  0.7133E-07 (  4,  3, 31)


                                          ================================================
                                                         FROM TIME =   62.000     TO    63.000    

 
 SOLVING FOR HEAD 
 FLOW MODEL IS TRANSIENT
 FLOW MODEL CONTAINS CONSTANT-HEAD CELLS


 MAXIMUM STEPSIZE DURING WHICH ANY PARTICLE CANNOT MOVE MORE THAN ONE CELL
 = 0.1699    (WHEN MIN. R.F.=1)  AT K=   3, I=   2, J=  30

 MAXIMUM STEPSIZE WHICH MEETS STABILITY CRITERION OF THE ADVECTION TERM
 (FOR PURE FINITE-DIFFERENCE OPTION, MIXELM=0) 
 = 0.1347    (WHEN MIN. R.F.=1)  AT K=   3, I=   2, J=  31


 TOTAL NUMBER OF POINT SOURCES/SINKS PRESENT IN THE FLOW MODEL =   240

 MAXIMUM STEPSIZE WHICH MEETS STABILITY CRITERION OF THE SINK & SOURCE TERM
 = 0.1000E+31(WHEN MIN. R.F.=1)  AT K=   0, I=   0, J=   0

 MAXIMUM STEPSIZE WHICH MEETS STABILITY CRITERION OF THE DISPERSION TERM
 = 0.7277E-02(WHEN MIN. R.F.=1)  AT K=   3, I=   2, J=  30


     1 CALLS TO GCG PACKAGE FOR TRANSPORT TIME STEP   1 IN FLOW TIME STEP  62 STRESS PERIOD   2
    14 TOTAL ITERATIONS

 NO OUTPUT CONTROL FOR STRESS PERIOD    2   TIME STEP  62
 
 SOLVING FOR HEAD 
 FLOW MODEL IS TRANSIENT
 FLOW MODEL CONTAINS CONSTANT-HEAD CELLS


 MAXIMUM STEPSIZE DURING WHICH ANY PARTICLE CANNOT MOVE MORE THAN ONE CELL
 = 0.1699    (WHEN MIN. R.F.=1)  AT K=   3, I=   2, J=  30

 MAXIMUM STEPSIZE WHICH MEETS STABILITY CRITERION OF THE ADVECTION TERM
 (FOR PURE FINITE-DIFFERENCE OPTION, MIXELM=0) 
 = 0.1347    (WHEN MIN. R.F.=1)  AT K=   3, I=   2, J=  31


 TOTAL NUMBER OF POINT SOURCES/SINKS PRESENT IN THE FLOW MODEL =   240

 MAXIMUM STEPSIZE WHICH MEETS STABILITY CRITERION OF THE SINK & SOURCE TERM
 = 0.1000E+31(WHEN MIN. R.F.=1)  AT K=   0, I=   0, J=   0

 MAXIMUM STEPSIZE WHICH MEETS STABILITY CRITERION OF THE DISPERSION TERM
 = 0.7277E-02(WHEN MIN. R.F.=1)  AT K=   3, I=   2, J=  30
     1 CALLS TO GCG PACKAGE FOR TRANSPORT TIME STEP   2 IN FLOW TIME STEP  62 STRESS PERIOD   2
    14 TOTAL ITERATIONS
 
 SOLVING FOR HEAD 
 FLOW MODEL IS TRANSIENT
 FLOW MODEL CONTAINS CONSTANT-HEAD CELLS


 MAXIMUM STEPSIZE DURING WHICH ANY PARTICLE CANNOT MOVE MORE THAN ONE CELL
 = 0.1699    (WHEN MIN. R.F.=1)  AT K=   3, I=   2, J=  30

 MAXIMUM STEPSIZE WHICH MEETS STABILITY CRITERION OF THE ADVECTION TERM
 (FOR PURE FINITE-DIFFERENCE OPTION, MIXELM=0) 
 = 0.1347    (WHEN MIN. R.F.=1)  AT K=   3, I=   2, J=  31


 TOTAL NUMBER OF POINT SOURCES/SINKS PRESENT IN THE FLOW MODEL =   240

 MAXIMUM STEPSIZE WHICH MEETS STABILITY CRITERION OF THE SINK & SOURCE TERM
 = 0.1000E+31(WHEN MIN. R.F.=1)  AT K=   0, I=   0, J=   0

 MAXIMUM STEPSIZE WHICH MEETS STABILITY CRITERION OF THE DISPERSION TERM
 = 0.7277E-02(WHEN MIN. R.F.=1)  AT K=   3, I=   2, J=  30
     1 CALLS TO GCG PACKAGE FOR TRANSPORT TIME STEP   3 IN FLOW TIME STEP  62 STRESS PERIOD   2
    14 TOTAL ITERATIONS
 
 SOLVING FOR HEAD 
 FLOW MODEL IS TRANSIENT
 FLOW MODEL CONTAINS CONSTANT-HEAD CELLS


 MAXIMUM STEPSIZE DURING WHICH ANY PARTICLE CANNOT MOVE MORE THAN ONE CELL
 = 0.1699    (WHEN MIN. R.F.=1)  AT K=   3, I=   2, J=  30

 MAXIMUM STEPSIZE WHICH MEETS STABILITY CRITERION OF THE ADVECTION TERM
 (FOR PURE FINITE-DIFFERENCE OPTION, MIXELM=0) 
 = 0.1347    (WHEN MIN. R.F.=1)  AT K=   3, I=   2, J=  31


 TOTAL NUMBER OF POINT SOURCES/SINKS PRESENT IN THE FLOW MODEL =   240

 MAXIMUM STEPSIZE WHICH MEETS STABILITY CRITERION OF THE SINK & SOURCE TERM
 = 0.1000E+31(WHEN MIN. R.F.=1)  AT K=   0, I=   0, J=   0

 MAXIMUM STEPSIZE WHICH MEETS STABILITY CRITERION OF THE DISPERSION TERM
 = 0.7277E-02(WHEN MIN. R.F.=1)  AT K=   3, I=   2, J=  30
     1 CALLS TO GCG PACKAGE FOR TRANSPORT TIME STEP   4 IN FLOW TIME STEP  62 STRESS PERIOD   2
    14 TOTAL ITERATIONS
 
 SOLVING FOR HEAD 
 FLOW MODEL IS TRANSIENT
 FLOW MODEL CONTAINS CONSTANT-HEAD CELLS


 MAXIMUM STEPSIZE DURING WHICH ANY PARTICLE CANNOT MOVE MORE THAN ONE CELL
 = 0.1699    (WHEN MIN. R.F.=1)  AT K=   3, I=   2, J=  30

 MAXIMUM STEPSIZE WHICH MEETS STABILITY CRITERION OF THE ADVECTION TERM
 (FOR PURE FINITE-DIFFERENCE OPTION, MIXELM=0) 
 = 0.1347    (WHEN MIN. R.F.=1)  AT K=   3, I=   2, J=  31


 TOTAL NUMBER OF POINT SOURCES/SINKS PRESENT IN THE FLOW MODEL =   240

 MAXIMUM STEPSIZE WHICH MEETS STABILITY CRITERION OF THE SINK & SOURCE TERM
 = 0.1000E+31(WHEN MIN. R.F.=1)  AT K=   0, I=   0, J=   0

 MAXIMUM STEPSIZE WHICH MEETS STABILITY CRITERION OF THE DISPERSION TERM
 = 0.7277E-02(WHEN MIN. R.F.=1)  AT K=   3, I=   2, J=  30
     1 CALLS TO GCG PACKAGE FOR TRANSPORT TIME STEP   5 IN FLOW TIME STEP  62 STRESS PERIOD   2
    14 TOTAL ITERATIONS
 
 SOLVING FOR HEAD 
 FLOW MODEL IS TRANSIENT
 FLOW MODEL CONTAINS CONSTANT-HEAD CELLS


 MAXIMUM STEPSIZE DURING WHICH ANY PARTICLE CANNOT MOVE MORE THAN ONE CELL
 = 0.1699    (WHEN MIN. R.F.=1)  AT K=   3, I=   2, J=  30

 MAXIMUM STEPSIZE WHICH MEETS STABILITY CRITERION OF THE ADVECTION TERM
 (FOR PURE FINITE-DIFFERENCE OPTION, MIXELM=0) 
 = 0.1347    (WHEN MIN. R.F.=1)  AT K=   3, I=   2, J=  31


 TOTAL NUMBER OF POINT SOURCES/SINKS PRESENT IN THE FLOW MODEL =   240

 MAXIMUM STEPSIZE WHICH MEETS STABILITY CRITERION OF THE SINK & SOURCE TERM
 = 0.1000E+31(WHEN MIN. R.F.=1)  AT K=   0, I=   0, J=   0

 MAXIMUM STEPSIZE WHICH MEETS STABILITY CRITERION OF THE DISPERSION TERM
 = 0.7277E-02(WHEN MIN. R.F.=1)  AT K=   3, I=   2, J=  30
     1 CALLS TO GCG PACKAGE FOR TRANSPORT TIME STEP   6 IN FLOW TIME STEP  62 STRESS PERIOD   2
    14 TOTAL ITERATIONS
 
 SOLVING FOR HEAD 
 FLOW MODEL IS TRANSIENT
 FLOW MODEL CONTAINS CONSTANT-HEAD CELLS


 MAXIMUM STEPSIZE DURING WHICH ANY PARTICLE CANNOT MOVE MORE THAN ONE CELL
 = 0.1699    (WHEN MIN. R.F.=1)  AT K=   3, I=   2, J=  30

 MAXIMUM STEPSIZE WHICH MEETS STABILITY CRITERION OF THE ADVECTION TERM
 (FOR PURE FINITE-DIFFERENCE OPTION, MIXELM=0) 
 = 0.1347    (WHEN MIN. R.F.=1)  AT K=   3, I=   2, J=  31


 TOTAL NUMBER OF POINT SOURCES/SINKS PRESENT IN THE FLOW MODEL =   240

 MAXIMUM STEPSIZE WHICH MEETS STABILITY CRITERION OF THE SINK & SOURCE TERM
 = 0.1000E+31(WHEN MIN. R.F.=1)  AT K=   0, I=   0, J=   0

 MAXIMUM STEPSIZE WHICH MEETS STABILITY CRITERION OF THE DISPERSION TERM
 = 0.7277E-02(WHEN MIN. R.F.=1)  AT K=   3, I=   2, J=  30
     1 CALLS TO GCG PACKAGE FOR TRANSPORT TIME STEP   7 IN FLOW TIME STEP  62 STRESS PERIOD   2
    14 TOTAL ITERATIONS
 
 SOLVING FOR HEAD 
 FLOW MODEL IS TRANSIENT
 FLOW MODEL CONTAINS CONSTANT-HEAD CELLS


 MAXIMUM STEPSIZE DURING WHICH ANY PARTICLE CANNOT MOVE MORE THAN ONE CELL
 = 0.1699    (WHEN MIN. R.F.=1)  AT K=   3, I=   2, J=  30

 MAXIMUM STEPSIZE WHICH MEETS STABILITY CRITERION OF THE ADVECTION TERM
 (FOR PURE FINITE-DIFFERENCE OPTION, MIXELM=0) 
 = 0.1347    (WHEN MIN. R.F.=1)  AT K=   3, I=   2, J=  31


 TOTAL NUMBER OF POINT SOURCES/SINKS PRESENT IN THE FLOW MODEL =   240

 MAXIMUM STEPSIZE WHICH MEETS STABILITY CRITERION OF THE SINK & SOURCE TERM
 = 0.1000E+31(WHEN MIN. R.F.=1)  AT K=   0, I=   0, J=   0

 MAXIMUM STEPSIZE WHICH MEETS STABILITY CRITERION OF THE DISPERSION TERM
 = 0.7277E-02(WHEN MIN. R.F.=1)  AT K=   3, I=   2, J=  30
     1 CALLS TO GCG PACKAGE FOR TRANSPORT TIME STEP   8 IN FLOW TIME STEP  62 STRESS PERIOD   2
    13 TOTAL ITERATIONS
  MAXIMUM CONCENTRATION CHANGES FOR EACH ITERATION:
  MAX. CHANGE LAYER,ROW,COL MAX. CHANGE LAYER,ROW,COL MAX. CHANGE LAYER,ROW,COL MAX. CHANGE LAYER,ROW,COL MAX. CHANGE LAYER,ROW,COL
 ------------------------------------------------------------------------------------------------------------------------------------
   0.8091E-03 ( 13,  1, 59)  0.1097E-03 (  9,  1, 57)  0.2868E-04 (  5,  2, 62)  0.1116E-04 (  8,  1, 59)  0.4129E-05 (  4,  2, 53)
   0.2189E-05 (  7,  1, 59)  0.1497E-05 (  4,  3, 31)  0.1017E-05 (  3,  3, 29)  0.6971E-06 (  4,  3, 29)  0.3899E-06 (  3,  3, 29)
   0.2219E-06 (  4,  3, 29)  0.1139E-06 (  4,  3, 30)  0.6748E-07 (  4,  3, 31)


                                          ================================================
                                                         FROM TIME =   63.000     TO    64.000    

 
 SOLVING FOR HEAD 
 FLOW MODEL IS TRANSIENT
 FLOW MODEL CONTAINS CONSTANT-HEAD CELLS


 MAXIMUM STEPSIZE DURING WHICH ANY PARTICLE CANNOT MOVE MORE THAN ONE CELL
 = 0.1699    (WHEN MIN. R.F.=1)  AT K=   3, I=   2, J=  30

 MAXIMUM STEPSIZE WHICH MEETS STABILITY CRITERION OF THE ADVECTION TERM
 (FOR PURE FINITE-DIFFERENCE OPTION, MIXELM=0) 
 = 0.1347    (WHEN MIN. R.F.=1)  AT K=   3, I=   2, J=  31


 TOTAL NUMBER OF POINT SOURCES/SINKS PRESENT IN THE FLOW MODEL =   240

 MAXIMUM STEPSIZE WHICH MEETS STABILITY CRITERION OF THE SINK & SOURCE TERM
 = 0.1000E+31(WHEN MIN. R.F.=1)  AT K=   0, I=   0, J=   0

 MAXIMUM STEPSIZE WHICH MEETS STABILITY CRITERION OF THE DISPERSION TERM
 = 0.7277E-02(WHEN MIN. R.F.=1)  AT K=   3, I=   2, J=  30


     1 CALLS TO GCG PACKAGE FOR TRANSPORT TIME STEP   1 IN FLOW TIME STEP  63 STRESS PERIOD   2
    14 TOTAL ITERATIONS

 NO OUTPUT CONTROL FOR STRESS PERIOD    2   TIME STEP  63
 
 SOLVING FOR HEAD 
 FLOW MODEL IS TRANSIENT
 FLOW MODEL CONTAINS CONSTANT-HEAD CELLS


 MAXIMUM STEPSIZE DURING WHICH ANY PARTICLE CANNOT MOVE MORE THAN ONE CELL
 = 0.1699    (WHEN MIN. R.F.=1)  AT K=   3, I=   2, J=  30

 MAXIMUM STEPSIZE WHICH MEETS STABILITY CRITERION OF THE ADVECTION TERM
 (FOR PURE FINITE-DIFFERENCE OPTION, MIXELM=0) 
 = 0.1347    (WHEN MIN. R.F.=1)  AT K=   3, I=   2, J=  31


 TOTAL NUMBER OF POINT SOURCES/SINKS PRESENT IN THE FLOW MODEL =   240

 MAXIMUM STEPSIZE WHICH MEETS STABILITY CRITERION OF THE SINK & SOURCE TERM
 = 0.1000E+31(WHEN MIN. R.F.=1)  AT K=   0, I=   0, J=   0

 MAXIMUM STEPSIZE WHICH MEETS STABILITY CRITERION OF THE DISPERSION TERM
 = 0.7277E-02(WHEN MIN. R.F.=1)  AT K=   3, I=   2, J=  30
     1 CALLS TO GCG PACKAGE FOR TRANSPORT TIME STEP   2 IN FLOW TIME STEP  63 STRESS PERIOD   2
    14 TOTAL ITERATIONS
 
 SOLVING FOR HEAD 
 FLOW MODEL IS TRANSIENT
 FLOW MODEL CONTAINS CONSTANT-HEAD CELLS


 MAXIMUM STEPSIZE DURING WHICH ANY PARTICLE CANNOT MOVE MORE THAN ONE CELL
 = 0.1699    (WHEN MIN. R.F.=1)  AT K=   3, I=   2, J=  30

 MAXIMUM STEPSIZE WHICH MEETS STABILITY CRITERION OF THE ADVECTION TERM
 (FOR PURE FINITE-DIFFERENCE OPTION, MIXELM=0) 
 = 0.1347    (WHEN MIN. R.F.=1)  AT K=   3, I=   2, J=  31


 TOTAL NUMBER OF POINT SOURCES/SINKS PRESENT IN THE FLOW MODEL =   240

 MAXIMUM STEPSIZE WHICH MEETS STABILITY CRITERION OF THE SINK & SOURCE TERM
 = 0.1000E+31(WHEN MIN. R.F.=1)  AT K=   0, I=   0, J=   0

 MAXIMUM STEPSIZE WHICH MEETS STABILITY CRITERION OF THE DISPERSION TERM
 = 0.7277E-02(WHEN MIN. R.F.=1)  AT K=   3, I=   2, J=  30
     1 CALLS TO GCG PACKAGE FOR TRANSPORT TIME STEP   3 IN FLOW TIME STEP  63 STRESS PERIOD   2
    14 TOTAL ITERATIONS
 
 SOLVING FOR HEAD 
 FLOW MODEL IS TRANSIENT
 FLOW MODEL CONTAINS CONSTANT-HEAD CELLS


 MAXIMUM STEPSIZE DURING WHICH ANY PARTICLE CANNOT MOVE MORE THAN ONE CELL
 = 0.1699    (WHEN MIN. R.F.=1)  AT K=   3, I=   2, J=  30

 MAXIMUM STEPSIZE WHICH MEETS STABILITY CRITERION OF THE ADVECTION TERM
 (FOR PURE FINITE-DIFFERENCE OPTION, MIXELM=0) 
 = 0.1347    (WHEN MIN. R.F.=1)  AT K=   3, I=   2, J=  31


 TOTAL NUMBER OF POINT SOURCES/SINKS PRESENT IN THE FLOW MODEL =   240

 MAXIMUM STEPSIZE WHICH MEETS STABILITY CRITERION OF THE SINK & SOURCE TERM
 = 0.1000E+31(WHEN MIN. R.F.=1)  AT K=   0, I=   0, J=   0

 MAXIMUM STEPSIZE WHICH MEETS STABILITY CRITERION OF THE DISPERSION TERM
 = 0.7277E-02(WHEN MIN. R.F.=1)  AT K=   3, I=   2, J=  30
     1 CALLS TO GCG PACKAGE FOR TRANSPORT TIME STEP   4 IN FLOW TIME STEP  63 STRESS PERIOD   2
    14 TOTAL ITERATIONS
 
 SOLVING FOR HEAD 
 FLOW MODEL IS TRANSIENT
 FLOW MODEL CONTAINS CONSTANT-HEAD CELLS


 MAXIMUM STEPSIZE DURING WHICH ANY PARTICLE CANNOT MOVE MORE THAN ONE CELL
 = 0.1699    (WHEN MIN. R.F.=1)  AT K=   3, I=   2, J=  30

 MAXIMUM STEPSIZE WHICH MEETS STABILITY CRITERION OF THE ADVECTION TERM
 (FOR PURE FINITE-DIFFERENCE OPTION, MIXELM=0) 
 = 0.1347    (WHEN MIN. R.F.=1)  AT K=   3, I=   2, J=  31


 TOTAL NUMBER OF POINT SOURCES/SINKS PRESENT IN THE FLOW MODEL =   240

 MAXIMUM STEPSIZE WHICH MEETS STABILITY CRITERION OF THE SINK & SOURCE TERM
 = 0.1000E+31(WHEN MIN. R.F.=1)  AT K=   0, I=   0, J=   0

 MAXIMUM STEPSIZE WHICH MEETS STABILITY CRITERION OF THE DISPERSION TERM
 = 0.7277E-02(WHEN MIN. R.F.=1)  AT K=   3, I=   2, J=  30
     1 CALLS TO GCG PACKAGE FOR TRANSPORT TIME STEP   5 IN FLOW TIME STEP  63 STRESS PERIOD   2
    14 TOTAL ITERATIONS
 
 SOLVING FOR HEAD 
 FLOW MODEL IS TRANSIENT
 FLOW MODEL CONTAINS CONSTANT-HEAD CELLS


 MAXIMUM STEPSIZE DURING WHICH ANY PARTICLE CANNOT MOVE MORE THAN ONE CELL
 = 0.1699    (WHEN MIN. R.F.=1)  AT K=   3, I=   2, J=  30

 MAXIMUM STEPSIZE WHICH MEETS STABILITY CRITERION OF THE ADVECTION TERM
 (FOR PURE FINITE-DIFFERENCE OPTION, MIXELM=0) 
 = 0.1347    (WHEN MIN. R.F.=1)  AT K=   3, I=   2, J=  31


 TOTAL NUMBER OF POINT SOURCES/SINKS PRESENT IN THE FLOW MODEL =   240

 MAXIMUM STEPSIZE WHICH MEETS STABILITY CRITERION OF THE SINK & SOURCE TERM
 = 0.1000E+31(WHEN MIN. R.F.=1)  AT K=   0, I=   0, J=   0

 MAXIMUM STEPSIZE WHICH MEETS STABILITY CRITERION OF THE DISPERSION TERM
 = 0.7277E-02(WHEN MIN. R.F.=1)  AT K=   3, I=   2, J=  30
     1 CALLS TO GCG PACKAGE FOR TRANSPORT TIME STEP   6 IN FLOW TIME STEP  63 STRESS PERIOD   2
    14 TOTAL ITERATIONS
 
 SOLVING FOR HEAD 
 FLOW MODEL IS TRANSIENT
 FLOW MODEL CONTAINS CONSTANT-HEAD CELLS


 MAXIMUM STEPSIZE DURING WHICH ANY PARTICLE CANNOT MOVE MORE THAN ONE CELL
 = 0.1699    (WHEN MIN. R.F.=1)  AT K=   3, I=   2, J=  30

 MAXIMUM STEPSIZE WHICH MEETS STABILITY CRITERION OF THE ADVECTION TERM
 (FOR PURE FINITE-DIFFERENCE OPTION, MIXELM=0) 
 = 0.1347    (WHEN MIN. R.F.=1)  AT K=   3, I=   2, J=  31


 TOTAL NUMBER OF POINT SOURCES/SINKS PRESENT IN THE FLOW MODEL =   240

 MAXIMUM STEPSIZE WHICH MEETS STABILITY CRITERION OF THE SINK & SOURCE TERM
 = 0.1000E+31(WHEN MIN. R.F.=1)  AT K=   0, I=   0, J=   0

 MAXIMUM STEPSIZE WHICH MEETS STABILITY CRITERION OF THE DISPERSION TERM
 = 0.7277E-02(WHEN MIN. R.F.=1)  AT K=   3, I=   2, J=  30
     1 CALLS TO GCG PACKAGE FOR TRANSPORT TIME STEP   7 IN FLOW TIME STEP  63 STRESS PERIOD   2
    14 TOTAL ITERATIONS
 
 SOLVING FOR HEAD 
 FLOW MODEL IS TRANSIENT
 FLOW MODEL CONTAINS CONSTANT-HEAD CELLS


 MAXIMUM STEPSIZE DURING WHICH ANY PARTICLE CANNOT MOVE MORE THAN ONE CELL
 = 0.1699    (WHEN MIN. R.F.=1)  AT K=   3, I=   2, J=  30

 MAXIMUM STEPSIZE WHICH MEETS STABILITY CRITERION OF THE ADVECTION TERM
 (FOR PURE FINITE-DIFFERENCE OPTION, MIXELM=0) 
 = 0.1347    (WHEN MIN. R.F.=1)  AT K=   3, I=   2, J=  31


 TOTAL NUMBER OF POINT SOURCES/SINKS PRESENT IN THE FLOW MODEL =   240

 MAXIMUM STEPSIZE WHICH MEETS STABILITY CRITERION OF THE SINK & SOURCE TERM
 = 0.1000E+31(WHEN MIN. R.F.=1)  AT K=   0, I=   0, J=   0

 MAXIMUM STEPSIZE WHICH MEETS STABILITY CRITERION OF THE DISPERSION TERM
 = 0.7277E-02(WHEN MIN. R.F.=1)  AT K=   3, I=   2, J=  30
     1 CALLS TO GCG PACKAGE FOR TRANSPORT TIME STEP   8 IN FLOW TIME STEP  63 STRESS PERIOD   2
    13 TOTAL ITERATIONS
  MAXIMUM CONCENTRATION CHANGES FOR EACH ITERATION:
  MAX. CHANGE LAYER,ROW,COL MAX. CHANGE LAYER,ROW,COL MAX. CHANGE LAYER,ROW,COL MAX. CHANGE LAYER,ROW,COL MAX. CHANGE LAYER,ROW,COL
 ------------------------------------------------------------------------------------------------------------------------------------
   0.7852E-03 ( 13,  1, 59)  0.1066E-03 (  9,  1, 57)  0.2779E-04 (  5,  2, 62)  0.1079E-04 (  8,  1, 59)  0.3977E-05 (  4,  2, 53)
   0.2122E-05 (  7,  1, 59)  0.1363E-05 (  4,  3, 31)  0.9372E-06 (  3,  3, 29)  0.6488E-06 (  4,  3, 29)  0.3656E-06 (  3,  3, 29)
   0.2102E-06 (  4,  3, 29)  0.1084E-06 (  4,  3, 30)  0.6365E-07 (  4,  3, 31)


                                          ================================================
                                                         FROM TIME =   64.000     TO    65.000    

 
 SOLVING FOR HEAD 
 FLOW MODEL IS TRANSIENT
 FLOW MODEL CONTAINS CONSTANT-HEAD CELLS


 MAXIMUM STEPSIZE DURING WHICH ANY PARTICLE CANNOT MOVE MORE THAN ONE CELL
 = 0.1698    (WHEN MIN. R.F.=1)  AT K=   3, I=   2, J=  30

 MAXIMUM STEPSIZE WHICH MEETS STABILITY CRITERION OF THE ADVECTION TERM
 (FOR PURE FINITE-DIFFERENCE OPTION, MIXELM=0) 
 = 0.1347    (WHEN MIN. R.F.=1)  AT K=   3, I=   2, J=  31


 TOTAL NUMBER OF POINT SOURCES/SINKS PRESENT IN THE FLOW MODEL =   240

 MAXIMUM STEPSIZE WHICH MEETS STABILITY CRITERION OF THE SINK & SOURCE TERM
 = 0.1000E+31(WHEN MIN. R.F.=1)  AT K=   0, I=   0, J=   0

 MAXIMUM STEPSIZE WHICH MEETS STABILITY CRITERION OF THE DISPERSION TERM
 = 0.7277E-02(WHEN MIN. R.F.=1)  AT K=   3, I=   2, J=  30


     1 CALLS TO GCG PACKAGE FOR TRANSPORT TIME STEP   1 IN FLOW TIME STEP  64 STRESS PERIOD   2
    14 TOTAL ITERATIONS

 NO OUTPUT CONTROL FOR STRESS PERIOD    2   TIME STEP  64
 
 SOLVING FOR HEAD 
 FLOW MODEL IS TRANSIENT
 FLOW MODEL CONTAINS CONSTANT-HEAD CELLS


 MAXIMUM STEPSIZE DURING WHICH ANY PARTICLE CANNOT MOVE MORE THAN ONE CELL
 = 0.1698    (WHEN MIN. R.F.=1)  AT K=   3, I=   2, J=  30

 MAXIMUM STEPSIZE WHICH MEETS STABILITY CRITERION OF THE ADVECTION TERM
 (FOR PURE FINITE-DIFFERENCE OPTION, MIXELM=0) 
 = 0.1347    (WHEN MIN. R.F.=1)  AT K=   3, I=   2, J=  31


 TOTAL NUMBER OF POINT SOURCES/SINKS PRESENT IN THE FLOW MODEL =   240

 MAXIMUM STEPSIZE WHICH MEETS STABILITY CRITERION OF THE SINK & SOURCE TERM
 = 0.1000E+31(WHEN MIN. R.F.=1)  AT K=   0, I=   0, J=   0

 MAXIMUM STEPSIZE WHICH MEETS STABILITY CRITERION OF THE DISPERSION TERM
 = 0.7277E-02(WHEN MIN. R.F.=1)  AT K=   3, I=   2, J=  30
     1 CALLS TO GCG PACKAGE FOR TRANSPORT TIME STEP   2 IN FLOW TIME STEP  64 STRESS PERIOD   2
    14 TOTAL ITERATIONS
 
 SOLVING FOR HEAD 
 FLOW MODEL IS TRANSIENT
 FLOW MODEL CONTAINS CONSTANT-HEAD CELLS


 MAXIMUM STEPSIZE DURING WHICH ANY PARTICLE CANNOT MOVE MORE THAN ONE CELL
 = 0.1698    (WHEN MIN. R.F.=1)  AT K=   3, I=   2, J=  30

 MAXIMUM STEPSIZE WHICH MEETS STABILITY CRITERION OF THE ADVECTION TERM
 (FOR PURE FINITE-DIFFERENCE OPTION, MIXELM=0) 
 = 0.1347    (WHEN MIN. R.F.=1)  AT K=   3, I=   2, J=  31


 TOTAL NUMBER OF POINT SOURCES/SINKS PRESENT IN THE FLOW MODEL =   240

 MAXIMUM STEPSIZE WHICH MEETS STABILITY CRITERION OF THE SINK & SOURCE TERM
 = 0.1000E+31(WHEN MIN. R.F.=1)  AT K=   0, I=   0, J=   0

 MAXIMUM STEPSIZE WHICH MEETS STABILITY CRITERION OF THE DISPERSION TERM
 = 0.7277E-02(WHEN MIN. R.F.=1)  AT K=   3, I=   2, J=  30
     1 CALLS TO GCG PACKAGE FOR TRANSPORT TIME STEP   3 IN FLOW TIME STEP  64 STRESS PERIOD   2
    14 TOTAL ITERATIONS
 
 SOLVING FOR HEAD 
 FLOW MODEL IS TRANSIENT
 FLOW MODEL CONTAINS CONSTANT-HEAD CELLS


 MAXIMUM STEPSIZE DURING WHICH ANY PARTICLE CANNOT MOVE MORE THAN ONE CELL
 = 0.1698    (WHEN MIN. R.F.=1)  AT K=   3, I=   2, J=  30

 MAXIMUM STEPSIZE WHICH MEETS STABILITY CRITERION OF THE ADVECTION TERM
 (FOR PURE FINITE-DIFFERENCE OPTION, MIXELM=0) 
 = 0.1347    (WHEN MIN. R.F.=1)  AT K=   3, I=   2, J=  31


 TOTAL NUMBER OF POINT SOURCES/SINKS PRESENT IN THE FLOW MODEL =   240

 MAXIMUM STEPSIZE WHICH MEETS STABILITY CRITERION OF THE SINK & SOURCE TERM
 = 0.1000E+31(WHEN MIN. R.F.=1)  AT K=   0, I=   0, J=   0

 MAXIMUM STEPSIZE WHICH MEETS STABILITY CRITERION OF THE DISPERSION TERM
 = 0.7277E-02(WHEN MIN. R.F.=1)  AT K=   3, I=   2, J=  30
     1 CALLS TO GCG PACKAGE FOR TRANSPORT TIME STEP   4 IN FLOW TIME STEP  64 STRESS PERIOD   2
    14 TOTAL ITERATIONS
 
 SOLVING FOR HEAD 
 FLOW MODEL IS TRANSIENT
 FLOW MODEL CONTAINS CONSTANT-HEAD CELLS


 MAXIMUM STEPSIZE DURING WHICH ANY PARTICLE CANNOT MOVE MORE THAN ONE CELL
 = 0.1698    (WHEN MIN. R.F.=1)  AT K=   3, I=   2, J=  30

 MAXIMUM STEPSIZE WHICH MEETS STABILITY CRITERION OF THE ADVECTION TERM
 (FOR PURE FINITE-DIFFERENCE OPTION, MIXELM=0) 
 = 0.1347    (WHEN MIN. R.F.=1)  AT K=   3, I=   2, J=  31


 TOTAL NUMBER OF POINT SOURCES/SINKS PRESENT IN THE FLOW MODEL =   240

 MAXIMUM STEPSIZE WHICH MEETS STABILITY CRITERION OF THE SINK & SOURCE TERM
 = 0.1000E+31(WHEN MIN. R.F.=1)  AT K=   0, I=   0, J=   0

 MAXIMUM STEPSIZE WHICH MEETS STABILITY CRITERION OF THE DISPERSION TERM
 = 0.7277E-02(WHEN MIN. R.F.=1)  AT K=   3, I=   2, J=  30
     1 CALLS TO GCG PACKAGE FOR TRANSPORT TIME STEP   5 IN FLOW TIME STEP  64 STRESS PERIOD   2
    14 TOTAL ITERATIONS
 
 SOLVING FOR HEAD 
 FLOW MODEL IS TRANSIENT
 FLOW MODEL CONTAINS CONSTANT-HEAD CELLS


 MAXIMUM STEPSIZE DURING WHICH ANY PARTICLE CANNOT MOVE MORE THAN ONE CELL
 = 0.1698    (WHEN MIN. R.F.=1)  AT K=   3, I=   2, J=  30

 MAXIMUM STEPSIZE WHICH MEETS STABILITY CRITERION OF THE ADVECTION TERM
 (FOR PURE FINITE-DIFFERENCE OPTION, MIXELM=0) 
 = 0.1347    (WHEN MIN. R.F.=1)  AT K=   3, I=   2, J=  31


 TOTAL NUMBER OF POINT SOURCES/SINKS PRESENT IN THE FLOW MODEL =   240

 MAXIMUM STEPSIZE WHICH MEETS STABILITY CRITERION OF THE SINK & SOURCE TERM
 = 0.1000E+31(WHEN MIN. R.F.=1)  AT K=   0, I=   0, J=   0

 MAXIMUM STEPSIZE WHICH MEETS STABILITY CRITERION OF THE DISPERSION TERM
 = 0.7277E-02(WHEN MIN. R.F.=1)  AT K=   3, I=   2, J=  30
     1 CALLS TO GCG PACKAGE FOR TRANSPORT TIME STEP   6 IN FLOW TIME STEP  64 STRESS PERIOD   2
    14 TOTAL ITERATIONS
 
 SOLVING FOR HEAD 
 FLOW MODEL IS TRANSIENT
 FLOW MODEL CONTAINS CONSTANT-HEAD CELLS


 MAXIMUM STEPSIZE DURING WHICH ANY PARTICLE CANNOT MOVE MORE THAN ONE CELL
 = 0.1698    (WHEN MIN. R.F.=1)  AT K=   3, I=   2, J=  30

 MAXIMUM STEPSIZE WHICH MEETS STABILITY CRITERION OF THE ADVECTION TERM
 (FOR PURE FINITE-DIFFERENCE OPTION, MIXELM=0) 
 = 0.1347    (WHEN MIN. R.F.=1)  AT K=   3, I=   2, J=  31


 TOTAL NUMBER OF POINT SOURCES/SINKS PRESENT IN THE FLOW MODEL =   240

 MAXIMUM STEPSIZE WHICH MEETS STABILITY CRITERION OF THE SINK & SOURCE TERM
 = 0.1000E+31(WHEN MIN. R.F.=1)  AT K=   0, I=   0, J=   0

 MAXIMUM STEPSIZE WHICH MEETS STABILITY CRITERION OF THE DISPERSION TERM
 = 0.7277E-02(WHEN MIN. R.F.=1)  AT K=   3, I=   2, J=  30
     1 CALLS TO GCG PACKAGE FOR TRANSPORT TIME STEP   7 IN FLOW TIME STEP  64 STRESS PERIOD   2
    14 TOTAL ITERATIONS
 
 SOLVING FOR HEAD 
 FLOW MODEL IS TRANSIENT
 FLOW MODEL CONTAINS CONSTANT-HEAD CELLS


 MAXIMUM STEPSIZE DURING WHICH ANY PARTICLE CANNOT MOVE MORE THAN ONE CELL
 = 0.1698    (WHEN MIN. R.F.=1)  AT K=   3, I=   2, J=  30

 MAXIMUM STEPSIZE WHICH MEETS STABILITY CRITERION OF THE ADVECTION TERM
 (FOR PURE FINITE-DIFFERENCE OPTION, MIXELM=0) 
 = 0.1347    (WHEN MIN. R.F.=1)  AT K=   3, I=   2, J=  31


 TOTAL NUMBER OF POINT SOURCES/SINKS PRESENT IN THE FLOW MODEL =   240

 MAXIMUM STEPSIZE WHICH MEETS STABILITY CRITERION OF THE SINK & SOURCE TERM
 = 0.1000E+31(WHEN MIN. R.F.=1)  AT K=   0, I=   0, J=   0

 MAXIMUM STEPSIZE WHICH MEETS STABILITY CRITERION OF THE DISPERSION TERM
 = 0.7277E-02(WHEN MIN. R.F.=1)  AT K=   3, I=   2, J=  30
     1 CALLS TO GCG PACKAGE FOR TRANSPORT TIME STEP   8 IN FLOW TIME STEP  64 STRESS PERIOD   2
    13 TOTAL ITERATIONS
  MAXIMUM CONCENTRATION CHANGES FOR EACH ITERATION:
  MAX. CHANGE LAYER,ROW,COL MAX. CHANGE LAYER,ROW,COL MAX. CHANGE LAYER,ROW,COL MAX. CHANGE LAYER,ROW,COL MAX. CHANGE LAYER,ROW,COL
 ------------------------------------------------------------------------------------------------------------------------------------
   0.7611E-03 ( 13,  1, 59)  0.1036E-03 (  9,  1, 57)  0.2694E-04 (  5,  2, 62)  0.1043E-04 (  8,  1, 59)  0.3830E-05 (  4,  2, 53)
   0.2057E-05 (  7,  1, 59)  0.1249E-05 (  3,  3, 28)  0.8597E-06 (  3,  3, 29)  0.6012E-06 (  4,  3, 29)  0.3417E-06 (  3,  3, 29)
   0.1986E-06 (  4,  3, 29)  0.1030E-06 (  4,  3, 30)  0.5986E-07 (  4,  3, 31)


                                          ================================================
                                                         FROM TIME =   65.000     TO    66.000    

 
 SOLVING FOR HEAD 
 FLOW MODEL IS TRANSIENT
 FLOW MODEL CONTAINS CONSTANT-HEAD CELLS


 MAXIMUM STEPSIZE DURING WHICH ANY PARTICLE CANNOT MOVE MORE THAN ONE CELL
 = 0.1698    (WHEN MIN. R.F.=1)  AT K=   3, I=   2, J=  30

 MAXIMUM STEPSIZE WHICH MEETS STABILITY CRITERION OF THE ADVECTION TERM
 (FOR PURE FINITE-DIFFERENCE OPTION, MIXELM=0) 
 = 0.1347    (WHEN MIN. R.F.=1)  AT K=   3, I=   2, J=  31


 TOTAL NUMBER OF POINT SOURCES/SINKS PRESENT IN THE FLOW MODEL =   240

 MAXIMUM STEPSIZE WHICH MEETS STABILITY CRITERION OF THE SINK & SOURCE TERM
 = 0.1000E+31(WHEN MIN. R.F.=1)  AT K=   0, I=   0, J=   0

 MAXIMUM STEPSIZE WHICH MEETS STABILITY CRITERION OF THE DISPERSION TERM
 = 0.7277E-02(WHEN MIN. R.F.=1)  AT K=   3, I=   2, J=  30


     1 CALLS TO GCG PACKAGE FOR TRANSPORT TIME STEP   1 IN FLOW TIME STEP  65 STRESS PERIOD   2
    14 TOTAL ITERATIONS

 NO OUTPUT CONTROL FOR STRESS PERIOD    2   TIME STEP  65
 
 SOLVING FOR HEAD 
 FLOW MODEL IS TRANSIENT
 FLOW MODEL CONTAINS CONSTANT-HEAD CELLS


 MAXIMUM STEPSIZE DURING WHICH ANY PARTICLE CANNOT MOVE MORE THAN ONE CELL
 = 0.1698    (WHEN MIN. R.F.=1)  AT K=   3, I=   2, J=  30

 MAXIMUM STEPSIZE WHICH MEETS STABILITY CRITERION OF THE ADVECTION TERM
 (FOR PURE FINITE-DIFFERENCE OPTION, MIXELM=0) 
 = 0.1347    (WHEN MIN. R.F.=1)  AT K=   3, I=   2, J=  31


 TOTAL NUMBER OF POINT SOURCES/SINKS PRESENT IN THE FLOW MODEL =   240

 MAXIMUM STEPSIZE WHICH MEETS STABILITY CRITERION OF THE SINK & SOURCE TERM
 = 0.1000E+31(WHEN MIN. R.F.=1)  AT K=   0, I=   0, J=   0

 MAXIMUM STEPSIZE WHICH MEETS STABILITY CRITERION OF THE DISPERSION TERM
 = 0.7277E-02(WHEN MIN. R.F.=1)  AT K=   3, I=   2, J=  30
     1 CALLS TO GCG PACKAGE FOR TRANSPORT TIME STEP   2 IN FLOW TIME STEP  65 STRESS PERIOD   2
    14 TOTAL ITERATIONS
 
 SOLVING FOR HEAD 
 FLOW MODEL IS TRANSIENT
 FLOW MODEL CONTAINS CONSTANT-HEAD CELLS


 MAXIMUM STEPSIZE DURING WHICH ANY PARTICLE CANNOT MOVE MORE THAN ONE CELL
 = 0.1698    (WHEN MIN. R.F.=1)  AT K=   3, I=   2, J=  30

 MAXIMUM STEPSIZE WHICH MEETS STABILITY CRITERION OF THE ADVECTION TERM
 (FOR PURE FINITE-DIFFERENCE OPTION, MIXELM=0) 
 = 0.1347    (WHEN MIN. R.F.=1)  AT K=   3, I=   2, J=  31


 TOTAL NUMBER OF POINT SOURCES/SINKS PRESENT IN THE FLOW MODEL =   240

 MAXIMUM STEPSIZE WHICH MEETS STABILITY CRITERION OF THE SINK & SOURCE TERM
 = 0.1000E+31(WHEN MIN. R.F.=1)  AT K=   0, I=   0, J=   0

 MAXIMUM STEPSIZE WHICH MEETS STABILITY CRITERION OF THE DISPERSION TERM
 = 0.7277E-02(WHEN MIN. R.F.=1)  AT K=   3, I=   2, J=  30
     1 CALLS TO GCG PACKAGE FOR TRANSPORT TIME STEP   3 IN FLOW TIME STEP  65 STRESS PERIOD   2
    14 TOTAL ITERATIONS
 
 SOLVING FOR HEAD 
 FLOW MODEL IS TRANSIENT
 FLOW MODEL CONTAINS CONSTANT-HEAD CELLS


 MAXIMUM STEPSIZE DURING WHICH ANY PARTICLE CANNOT MOVE MORE THAN ONE CELL
 = 0.1698    (WHEN MIN. R.F.=1)  AT K=   3, I=   2, J=  30

 MAXIMUM STEPSIZE WHICH MEETS STABILITY CRITERION OF THE ADVECTION TERM
 (FOR PURE FINITE-DIFFERENCE OPTION, MIXELM=0) 
 = 0.1347    (WHEN MIN. R.F.=1)  AT K=   3, I=   2, J=  31


 TOTAL NUMBER OF POINT SOURCES/SINKS PRESENT IN THE FLOW MODEL =   240

 MAXIMUM STEPSIZE WHICH MEETS STABILITY CRITERION OF THE SINK & SOURCE TERM
 = 0.1000E+31(WHEN MIN. R.F.=1)  AT K=   0, I=   0, J=   0

 MAXIMUM STEPSIZE WHICH MEETS STABILITY CRITERION OF THE DISPERSION TERM
 = 0.7277E-02(WHEN MIN. R.F.=1)  AT K=   3, I=   2, J=  30
     1 CALLS TO GCG PACKAGE FOR TRANSPORT TIME STEP   4 IN FLOW TIME STEP  65 STRESS PERIOD   2
    14 TOTAL ITERATIONS
 
 SOLVING FOR HEAD 
 FLOW MODEL IS TRANSIENT
 FLOW MODEL CONTAINS CONSTANT-HEAD CELLS


 MAXIMUM STEPSIZE DURING WHICH ANY PARTICLE CANNOT MOVE MORE THAN ONE CELL
 = 0.1698    (WHEN MIN. R.F.=1)  AT K=   3, I=   2, J=  30

 MAXIMUM STEPSIZE WHICH MEETS STABILITY CRITERION OF THE ADVECTION TERM
 (FOR PURE FINITE-DIFFERENCE OPTION, MIXELM=0) 
 = 0.1347    (WHEN MIN. R.F.=1)  AT K=   3, I=   2, J=  31


 TOTAL NUMBER OF POINT SOURCES/SINKS PRESENT IN THE FLOW MODEL =   240

 MAXIMUM STEPSIZE WHICH MEETS STABILITY CRITERION OF THE SINK & SOURCE TERM
 = 0.1000E+31(WHEN MIN. R.F.=1)  AT K=   0, I=   0, J=   0

 MAXIMUM STEPSIZE WHICH MEETS STABILITY CRITERION OF THE DISPERSION TERM
 = 0.7277E-02(WHEN MIN. R.F.=1)  AT K=   3, I=   2, J=  30
     1 CALLS TO GCG PACKAGE FOR TRANSPORT TIME STEP   5 IN FLOW TIME STEP  65 STRESS PERIOD   2
    14 TOTAL ITERATIONS
 
 SOLVING FOR HEAD 
 FLOW MODEL IS TRANSIENT
 FLOW MODEL CONTAINS CONSTANT-HEAD CELLS


 MAXIMUM STEPSIZE DURING WHICH ANY PARTICLE CANNOT MOVE MORE THAN ONE CELL
 = 0.1698    (WHEN MIN. R.F.=1)  AT K=   3, I=   2, J=  30

 MAXIMUM STEPSIZE WHICH MEETS STABILITY CRITERION OF THE ADVECTION TERM
 (FOR PURE FINITE-DIFFERENCE OPTION, MIXELM=0) 
 = 0.1347    (WHEN MIN. R.F.=1)  AT K=   3, I=   2, J=  31


 TOTAL NUMBER OF POINT SOURCES/SINKS PRESENT IN THE FLOW MODEL =   240

 MAXIMUM STEPSIZE WHICH MEETS STABILITY CRITERION OF THE SINK & SOURCE TERM
 = 0.1000E+31(WHEN MIN. R.F.=1)  AT K=   0, I=   0, J=   0

 MAXIMUM STEPSIZE WHICH MEETS STABILITY CRITERION OF THE DISPERSION TERM
 = 0.7277E-02(WHEN MIN. R.F.=1)  AT K=   3, I=   2, J=  30
     1 CALLS TO GCG PACKAGE FOR TRANSPORT TIME STEP   6 IN FLOW TIME STEP  65 STRESS PERIOD   2
    14 TOTAL ITERATIONS
 
 SOLVING FOR HEAD 
 FLOW MODEL IS TRANSIENT
 FLOW MODEL CONTAINS CONSTANT-HEAD CELLS


 MAXIMUM STEPSIZE DURING WHICH ANY PARTICLE CANNOT MOVE MORE THAN ONE CELL
 = 0.1698    (WHEN MIN. R.F.=1)  AT K=   3, I=   2, J=  30

 MAXIMUM STEPSIZE WHICH MEETS STABILITY CRITERION OF THE ADVECTION TERM
 (FOR PURE FINITE-DIFFERENCE OPTION, MIXELM=0) 
 = 0.1347    (WHEN MIN. R.F.=1)  AT K=   3, I=   2, J=  31


 TOTAL NUMBER OF POINT SOURCES/SINKS PRESENT IN THE FLOW MODEL =   240

 MAXIMUM STEPSIZE WHICH MEETS STABILITY CRITERION OF THE SINK & SOURCE TERM
 = 0.1000E+31(WHEN MIN. R.F.=1)  AT K=   0, I=   0, J=   0

 MAXIMUM STEPSIZE WHICH MEETS STABILITY CRITERION OF THE DISPERSION TERM
 = 0.7276E-02(WHEN MIN. R.F.=1)  AT K=   3, I=   2, J=  30
     1 CALLS TO GCG PACKAGE FOR TRANSPORT TIME STEP   7 IN FLOW TIME STEP  65 STRESS PERIOD   2
    14 TOTAL ITERATIONS
 
 SOLVING FOR HEAD 
 FLOW MODEL IS TRANSIENT
 FLOW MODEL CONTAINS CONSTANT-HEAD CELLS


 MAXIMUM STEPSIZE DURING WHICH ANY PARTICLE CANNOT MOVE MORE THAN ONE CELL
 = 0.1698    (WHEN MIN. R.F.=1)  AT K=   3, I=   2, J=  30

 MAXIMUM STEPSIZE WHICH MEETS STABILITY CRITERION OF THE ADVECTION TERM
 (FOR PURE FINITE-DIFFERENCE OPTION, MIXELM=0) 
 = 0.1347    (WHEN MIN. R.F.=1)  AT K=   3, I=   2, J=  31


 TOTAL NUMBER OF POINT SOURCES/SINKS PRESENT IN THE FLOW MODEL =   240

 MAXIMUM STEPSIZE WHICH MEETS STABILITY CRITERION OF THE SINK & SOURCE TERM
 = 0.1000E+31(WHEN MIN. R.F.=1)  AT K=   0, I=   0, J=   0

 MAXIMUM STEPSIZE WHICH MEETS STABILITY CRITERION OF THE DISPERSION TERM
 = 0.7276E-02(WHEN MIN. R.F.=1)  AT K=   3, I=   2, J=  30
     1 CALLS TO GCG PACKAGE FOR TRANSPORT TIME STEP   8 IN FLOW TIME STEP  65 STRESS PERIOD   2
    12 TOTAL ITERATIONS
  MAXIMUM CONCENTRATION CHANGES FOR EACH ITERATION:
  MAX. CHANGE LAYER,ROW,COL MAX. CHANGE LAYER,ROW,COL MAX. CHANGE LAYER,ROW,COL MAX. CHANGE LAYER,ROW,COL MAX. CHANGE LAYER,ROW,COL
 ------------------------------------------------------------------------------------------------------------------------------------
   0.7445E-03 ( 13,  1, 61)  0.1006E-03 (  9,  1, 57)  0.2612E-04 (  5,  2, 62)  0.1008E-04 (  8,  1, 59)  0.3689E-05 (  4,  2, 53)
   0.1993E-05 (  7,  1, 59)  0.1152E-05 (  3,  3, 28)  0.7855E-06 (  3,  3, 29)  0.5549E-06 (  4,  3, 29)  0.3184E-06 (  3,  3, 29)
   0.1871E-06 (  4,  3, 29)  0.9762E-07 (  4,  3, 30)


                                          ================================================
                                                         FROM TIME =   66.000     TO    67.000    

 
 SOLVING FOR HEAD 
 FLOW MODEL IS TRANSIENT
 FLOW MODEL CONTAINS CONSTANT-HEAD CELLS


 MAXIMUM STEPSIZE DURING WHICH ANY PARTICLE CANNOT MOVE MORE THAN ONE CELL
 = 0.1698    (WHEN MIN. R.F.=1)  AT K=   3, I=   2, J=  30

 MAXIMUM STEPSIZE WHICH MEETS STABILITY CRITERION OF THE ADVECTION TERM
 (FOR PURE FINITE-DIFFERENCE OPTION, MIXELM=0) 
 = 0.1347    (WHEN MIN. R.F.=1)  AT K=   3, I=   2, J=  31


 TOTAL NUMBER OF POINT SOURCES/SINKS PRESENT IN THE FLOW MODEL =   240

 MAXIMUM STEPSIZE WHICH MEETS STABILITY CRITERION OF THE SINK & SOURCE TERM
 = 0.1000E+31(WHEN MIN. R.F.=1)  AT K=   0, I=   0, J=   0

 MAXIMUM STEPSIZE WHICH MEETS STABILITY CRITERION OF THE DISPERSION TERM
 = 0.7276E-02(WHEN MIN. R.F.=1)  AT K=   3, I=   2, J=  30


     1 CALLS TO GCG PACKAGE FOR TRANSPORT TIME STEP   1 IN FLOW TIME STEP  66 STRESS PERIOD   2
    13 TOTAL ITERATIONS

 NO OUTPUT CONTROL FOR STRESS PERIOD    2   TIME STEP  66
 
 SOLVING FOR HEAD 
 FLOW MODEL IS TRANSIENT
 FLOW MODEL CONTAINS CONSTANT-HEAD CELLS


 MAXIMUM STEPSIZE DURING WHICH ANY PARTICLE CANNOT MOVE MORE THAN ONE CELL
 = 0.1698    (WHEN MIN. R.F.=1)  AT K=   3, I=   2, J=  30

 MAXIMUM STEPSIZE WHICH MEETS STABILITY CRITERION OF THE ADVECTION TERM
 (FOR PURE FINITE-DIFFERENCE OPTION, MIXELM=0) 
 = 0.1347    (WHEN MIN. R.F.=1)  AT K=   3, I=   2, J=  31


 TOTAL NUMBER OF POINT SOURCES/SINKS PRESENT IN THE FLOW MODEL =   240

 MAXIMUM STEPSIZE WHICH MEETS STABILITY CRITERION OF THE SINK & SOURCE TERM
 = 0.1000E+31(WHEN MIN. R.F.=1)  AT K=   0, I=   0, J=   0

 MAXIMUM STEPSIZE WHICH MEETS STABILITY CRITERION OF THE DISPERSION TERM
 = 0.7276E-02(WHEN MIN. R.F.=1)  AT K=   3, I=   2, J=  30
     1 CALLS TO GCG PACKAGE FOR TRANSPORT TIME STEP   2 IN FLOW TIME STEP  66 STRESS PERIOD   2
    14 TOTAL ITERATIONS
 
 SOLVING FOR HEAD 
 FLOW MODEL IS TRANSIENT
 FLOW MODEL CONTAINS CONSTANT-HEAD CELLS


 MAXIMUM STEPSIZE DURING WHICH ANY PARTICLE CANNOT MOVE MORE THAN ONE CELL
 = 0.1698    (WHEN MIN. R.F.=1)  AT K=   3, I=   2, J=  30

 MAXIMUM STEPSIZE WHICH MEETS STABILITY CRITERION OF THE ADVECTION TERM
 (FOR PURE FINITE-DIFFERENCE OPTION, MIXELM=0) 
 = 0.1347    (WHEN MIN. R.F.=1)  AT K=   3, I=   2, J=  31


 TOTAL NUMBER OF POINT SOURCES/SINKS PRESENT IN THE FLOW MODEL =   240

 MAXIMUM STEPSIZE WHICH MEETS STABILITY CRITERION OF THE SINK & SOURCE TERM
 = 0.1000E+31(WHEN MIN. R.F.=1)  AT K=   0, I=   0, J=   0

 MAXIMUM STEPSIZE WHICH MEETS STABILITY CRITERION OF THE DISPERSION TERM
 = 0.7276E-02(WHEN MIN. R.F.=1)  AT K=   3, I=   2, J=  30
     1 CALLS TO GCG PACKAGE FOR TRANSPORT TIME STEP   3 IN FLOW TIME STEP  66 STRESS PERIOD   2
    14 TOTAL ITERATIONS
 
 SOLVING FOR HEAD 
 FLOW MODEL IS TRANSIENT
 FLOW MODEL CONTAINS CONSTANT-HEAD CELLS


 MAXIMUM STEPSIZE DURING WHICH ANY PARTICLE CANNOT MOVE MORE THAN ONE CELL
 = 0.1698    (WHEN MIN. R.F.=1)  AT K=   3, I=   2, J=  30

 MAXIMUM STEPSIZE WHICH MEETS STABILITY CRITERION OF THE ADVECTION TERM
 (FOR PURE FINITE-DIFFERENCE OPTION, MIXELM=0) 
 = 0.1347    (WHEN MIN. R.F.=1)  AT K=   3, I=   2, J=  31


 TOTAL NUMBER OF POINT SOURCES/SINKS PRESENT IN THE FLOW MODEL =   240

 MAXIMUM STEPSIZE WHICH MEETS STABILITY CRITERION OF THE SINK & SOURCE TERM
 = 0.1000E+31(WHEN MIN. R.F.=1)  AT K=   0, I=   0, J=   0

 MAXIMUM STEPSIZE WHICH MEETS STABILITY CRITERION OF THE DISPERSION TERM
 = 0.7276E-02(WHEN MIN. R.F.=1)  AT K=   3, I=   2, J=  30
     1 CALLS TO GCG PACKAGE FOR TRANSPORT TIME STEP   4 IN FLOW TIME STEP  66 STRESS PERIOD   2
    14 TOTAL ITERATIONS
 
 SOLVING FOR HEAD 
 FLOW MODEL IS TRANSIENT
 FLOW MODEL CONTAINS CONSTANT-HEAD CELLS


 MAXIMUM STEPSIZE DURING WHICH ANY PARTICLE CANNOT MOVE MORE THAN ONE CELL
 = 0.1698    (WHEN MIN. R.F.=1)  AT K=   3, I=   2, J=  30

 MAXIMUM STEPSIZE WHICH MEETS STABILITY CRITERION OF THE ADVECTION TERM
 (FOR PURE FINITE-DIFFERENCE OPTION, MIXELM=0) 
 = 0.1347    (WHEN MIN. R.F.=1)  AT K=   3, I=   2, J=  31


 TOTAL NUMBER OF POINT SOURCES/SINKS PRESENT IN THE FLOW MODEL =   240

 MAXIMUM STEPSIZE WHICH MEETS STABILITY CRITERION OF THE SINK & SOURCE TERM
 = 0.1000E+31(WHEN MIN. R.F.=1)  AT K=   0, I=   0, J=   0

 MAXIMUM STEPSIZE WHICH MEETS STABILITY CRITERION OF THE DISPERSION TERM
 = 0.7276E-02(WHEN MIN. R.F.=1)  AT K=   3, I=   2, J=  30
     1 CALLS TO GCG PACKAGE FOR TRANSPORT TIME STEP   5 IN FLOW TIME STEP  66 STRESS PERIOD   2
    13 TOTAL ITERATIONS
 
 SOLVING FOR HEAD 
 FLOW MODEL IS TRANSIENT
 FLOW MODEL CONTAINS CONSTANT-HEAD CELLS


 MAXIMUM STEPSIZE DURING WHICH ANY PARTICLE CANNOT MOVE MORE THAN ONE CELL
 = 0.1698    (WHEN MIN. R.F.=1)  AT K=   3, I=   2, J=  30

 MAXIMUM STEPSIZE WHICH MEETS STABILITY CRITERION OF THE ADVECTION TERM
 (FOR PURE FINITE-DIFFERENCE OPTION, MIXELM=0) 
 = 0.1347    (WHEN MIN. R.F.=1)  AT K=   3, I=   2, J=  31


 TOTAL NUMBER OF POINT SOURCES/SINKS PRESENT IN THE FLOW MODEL =   240

 MAXIMUM STEPSIZE WHICH MEETS STABILITY CRITERION OF THE SINK & SOURCE TERM
 = 0.1000E+31(WHEN MIN. R.F.=1)  AT K=   0, I=   0, J=   0

 MAXIMUM STEPSIZE WHICH MEETS STABILITY CRITERION OF THE DISPERSION TERM
 = 0.7276E-02(WHEN MIN. R.F.=1)  AT K=   3, I=   2, J=  30
     1 CALLS TO GCG PACKAGE FOR TRANSPORT TIME STEP   6 IN FLOW TIME STEP  66 STRESS PERIOD   2
    14 TOTAL ITERATIONS
 
 SOLVING FOR HEAD 
 FLOW MODEL IS TRANSIENT
 FLOW MODEL CONTAINS CONSTANT-HEAD CELLS


 MAXIMUM STEPSIZE DURING WHICH ANY PARTICLE CANNOT MOVE MORE THAN ONE CELL
 = 0.1698    (WHEN MIN. R.F.=1)  AT K=   3, I=   2, J=  30

 MAXIMUM STEPSIZE WHICH MEETS STABILITY CRITERION OF THE ADVECTION TERM
 (FOR PURE FINITE-DIFFERENCE OPTION, MIXELM=0) 
 = 0.1347    (WHEN MIN. R.F.=1)  AT K=   3, I=   2, J=  31


 TOTAL NUMBER OF POINT SOURCES/SINKS PRESENT IN THE FLOW MODEL =   240

 MAXIMUM STEPSIZE WHICH MEETS STABILITY CRITERION OF THE SINK & SOURCE TERM
 = 0.1000E+31(WHEN MIN. R.F.=1)  AT K=   0, I=   0, J=   0

 MAXIMUM STEPSIZE WHICH MEETS STABILITY CRITERION OF THE DISPERSION TERM
 = 0.7276E-02(WHEN MIN. R.F.=1)  AT K=   3, I=   2, J=  30
     1 CALLS TO GCG PACKAGE FOR TRANSPORT TIME STEP   7 IN FLOW TIME STEP  66 STRESS PERIOD   2
    13 TOTAL ITERATIONS
 
 SOLVING FOR HEAD 
 FLOW MODEL IS TRANSIENT
 FLOW MODEL CONTAINS CONSTANT-HEAD CELLS


 MAXIMUM STEPSIZE DURING WHICH ANY PARTICLE CANNOT MOVE MORE THAN ONE CELL
 = 0.1698    (WHEN MIN. R.F.=1)  AT K=   3, I=   2, J=  30

 MAXIMUM STEPSIZE WHICH MEETS STABILITY CRITERION OF THE ADVECTION TERM
 (FOR PURE FINITE-DIFFERENCE OPTION, MIXELM=0) 
 = 0.1347    (WHEN MIN. R.F.=1)  AT K=   3, I=   2, J=  31


 TOTAL NUMBER OF POINT SOURCES/SINKS PRESENT IN THE FLOW MODEL =   240

 MAXIMUM STEPSIZE WHICH MEETS STABILITY CRITERION OF THE SINK & SOURCE TERM
 = 0.1000E+31(WHEN MIN. R.F.=1)  AT K=   0, I=   0, J=   0

 MAXIMUM STEPSIZE WHICH MEETS STABILITY CRITERION OF THE DISPERSION TERM
 = 0.7276E-02(WHEN MIN. R.F.=1)  AT K=   3, I=   2, J=  30
     1 CALLS TO GCG PACKAGE FOR TRANSPORT TIME STEP   8 IN FLOW TIME STEP  66 STRESS PERIOD   2
    13 TOTAL ITERATIONS
  MAXIMUM CONCENTRATION CHANGES FOR EACH ITERATION:
  MAX. CHANGE LAYER,ROW,COL MAX. CHANGE LAYER,ROW,COL MAX. CHANGE LAYER,ROW,COL MAX. CHANGE LAYER,ROW,COL MAX. CHANGE LAYER,ROW,COL
 ------------------------------------------------------------------------------------------------------------------------------------
   0.7304E-03 ( 13,  1, 61)  0.9777E-04 (  9,  1, 57)  0.2534E-04 (  5,  2, 62)  0.9738E-05 (  8,  1, 59)  0.3553E-05 (  4,  2, 53)
   0.1903E-05 (  7,  1, 59)  0.1103E-05 (  3,  2, 28)  0.7511E-06 (  3,  2, 29)  0.5413E-06 (  4,  2, 29)  0.3254E-06 (  3,  2, 29)
   0.2032E-06 (  3,  2, 30)  0.1104E-06 (  4,  2, 30)  0.6626E-07 (  4,  2, 31)


                                          ================================================
                                                         FROM TIME =   67.000     TO    68.000    

 
 SOLVING FOR HEAD 
 FLOW MODEL IS TRANSIENT
 FLOW MODEL CONTAINS CONSTANT-HEAD CELLS


 MAXIMUM STEPSIZE DURING WHICH ANY PARTICLE CANNOT MOVE MORE THAN ONE CELL
 = 0.1698    (WHEN MIN. R.F.=1)  AT K=   3, I=   2, J=  30

 MAXIMUM STEPSIZE WHICH MEETS STABILITY CRITERION OF THE ADVECTION TERM
 (FOR PURE FINITE-DIFFERENCE OPTION, MIXELM=0) 
 = 0.1347    (WHEN MIN. R.F.=1)  AT K=   3, I=   2, J=  31


 TOTAL NUMBER OF POINT SOURCES/SINKS PRESENT IN THE FLOW MODEL =   240

 MAXIMUM STEPSIZE WHICH MEETS STABILITY CRITERION OF THE SINK & SOURCE TERM
 = 0.1000E+31(WHEN MIN. R.F.=1)  AT K=   0, I=   0, J=   0

 MAXIMUM STEPSIZE WHICH MEETS STABILITY CRITERION OF THE DISPERSION TERM
 = 0.7276E-02(WHEN MIN. R.F.=1)  AT K=   3, I=   2, J=  30


     1 CALLS TO GCG PACKAGE FOR TRANSPORT TIME STEP   1 IN FLOW TIME STEP  67 STRESS PERIOD   2
    14 TOTAL ITERATIONS

 NO OUTPUT CONTROL FOR STRESS PERIOD    2   TIME STEP  67
 
 SOLVING FOR HEAD 
 FLOW MODEL IS TRANSIENT
 FLOW MODEL CONTAINS CONSTANT-HEAD CELLS


 MAXIMUM STEPSIZE DURING WHICH ANY PARTICLE CANNOT MOVE MORE THAN ONE CELL
 = 0.1698    (WHEN MIN. R.F.=1)  AT K=   3, I=   2, J=  30

 MAXIMUM STEPSIZE WHICH MEETS STABILITY CRITERION OF THE ADVECTION TERM
 (FOR PURE FINITE-DIFFERENCE OPTION, MIXELM=0) 
 = 0.1347    (WHEN MIN. R.F.=1)  AT K=   3, I=   2, J=  31


 TOTAL NUMBER OF POINT SOURCES/SINKS PRESENT IN THE FLOW MODEL =   240

 MAXIMUM STEPSIZE WHICH MEETS STABILITY CRITERION OF THE SINK & SOURCE TERM
 = 0.1000E+31(WHEN MIN. R.F.=1)  AT K=   0, I=   0, J=   0

 MAXIMUM STEPSIZE WHICH MEETS STABILITY CRITERION OF THE DISPERSION TERM
 = 0.7276E-02(WHEN MIN. R.F.=1)  AT K=   3, I=   2, J=  30
     1 CALLS TO GCG PACKAGE FOR TRANSPORT TIME STEP   2 IN FLOW TIME STEP  67 STRESS PERIOD   2
    13 TOTAL ITERATIONS
 
 SOLVING FOR HEAD 
 FLOW MODEL IS TRANSIENT
 FLOW MODEL CONTAINS CONSTANT-HEAD CELLS


 MAXIMUM STEPSIZE DURING WHICH ANY PARTICLE CANNOT MOVE MORE THAN ONE CELL
 = 0.1698    (WHEN MIN. R.F.=1)  AT K=   3, I=   2, J=  30

 MAXIMUM STEPSIZE WHICH MEETS STABILITY CRITERION OF THE ADVECTION TERM
 (FOR PURE FINITE-DIFFERENCE OPTION, MIXELM=0) 
 = 0.1347    (WHEN MIN. R.F.=1)  AT K=   3, I=   2, J=  31


 TOTAL NUMBER OF POINT SOURCES/SINKS PRESENT IN THE FLOW MODEL =   240

 MAXIMUM STEPSIZE WHICH MEETS STABILITY CRITERION OF THE SINK & SOURCE TERM
 = 0.1000E+31(WHEN MIN. R.F.=1)  AT K=   0, I=   0, J=   0

 MAXIMUM STEPSIZE WHICH MEETS STABILITY CRITERION OF THE DISPERSION TERM
 = 0.7276E-02(WHEN MIN. R.F.=1)  AT K=   3, I=   2, J=  30
     1 CALLS TO GCG PACKAGE FOR TRANSPORT TIME STEP   3 IN FLOW TIME STEP  67 STRESS PERIOD   2
    14 TOTAL ITERATIONS
 
 SOLVING FOR HEAD 
 FLOW MODEL IS TRANSIENT
 FLOW MODEL CONTAINS CONSTANT-HEAD CELLS


 MAXIMUM STEPSIZE DURING WHICH ANY PARTICLE CANNOT MOVE MORE THAN ONE CELL
 = 0.1698    (WHEN MIN. R.F.=1)  AT K=   3, I=   2, J=  30

 MAXIMUM STEPSIZE WHICH MEETS STABILITY CRITERION OF THE ADVECTION TERM
 (FOR PURE FINITE-DIFFERENCE OPTION, MIXELM=0) 
 = 0.1347    (WHEN MIN. R.F.=1)  AT K=   3, I=   2, J=  31


 TOTAL NUMBER OF POINT SOURCES/SINKS PRESENT IN THE FLOW MODEL =   240

 MAXIMUM STEPSIZE WHICH MEETS STABILITY CRITERION OF THE SINK & SOURCE TERM
 = 0.1000E+31(WHEN MIN. R.F.=1)  AT K=   0, I=   0, J=   0

 MAXIMUM STEPSIZE WHICH MEETS STABILITY CRITERION OF THE DISPERSION TERM
 = 0.7276E-02(WHEN MIN. R.F.=1)  AT K=   3, I=   2, J=  30
     1 CALLS TO GCG PACKAGE FOR TRANSPORT TIME STEP   4 IN FLOW TIME STEP  67 STRESS PERIOD   2
    14 TOTAL ITERATIONS
 
 SOLVING FOR HEAD 
 FLOW MODEL IS TRANSIENT
 FLOW MODEL CONTAINS CONSTANT-HEAD CELLS


 MAXIMUM STEPSIZE DURING WHICH ANY PARTICLE CANNOT MOVE MORE THAN ONE CELL
 = 0.1698    (WHEN MIN. R.F.=1)  AT K=   3, I=   2, J=  30

 MAXIMUM STEPSIZE WHICH MEETS STABILITY CRITERION OF THE ADVECTION TERM
 (FOR PURE FINITE-DIFFERENCE OPTION, MIXELM=0) 
 = 0.1347    (WHEN MIN. R.F.=1)  AT K=   3, I=   2, J=  31


 TOTAL NUMBER OF POINT SOURCES/SINKS PRESENT IN THE FLOW MODEL =   240

 MAXIMUM STEPSIZE WHICH MEETS STABILITY CRITERION OF THE SINK & SOURCE TERM
 = 0.1000E+31(WHEN MIN. R.F.=1)  AT K=   0, I=   0, J=   0

 MAXIMUM STEPSIZE WHICH MEETS STABILITY CRITERION OF THE DISPERSION TERM
 = 0.7276E-02(WHEN MIN. R.F.=1)  AT K=   3, I=   2, J=  30
     1 CALLS TO GCG PACKAGE FOR TRANSPORT TIME STEP   5 IN FLOW TIME STEP  67 STRESS PERIOD   2
    13 TOTAL ITERATIONS
 
 SOLVING FOR HEAD 
 FLOW MODEL IS TRANSIENT
 FLOW MODEL CONTAINS CONSTANT-HEAD CELLS


 MAXIMUM STEPSIZE DURING WHICH ANY PARTICLE CANNOT MOVE MORE THAN ONE CELL
 = 0.1698    (WHEN MIN. R.F.=1)  AT K=   3, I=   2, J=  30

 MAXIMUM STEPSIZE WHICH MEETS STABILITY CRITERION OF THE ADVECTION TERM
 (FOR PURE FINITE-DIFFERENCE OPTION, MIXELM=0) 
 = 0.1347    (WHEN MIN. R.F.=1)  AT K=   3, I=   2, J=  31


 TOTAL NUMBER OF POINT SOURCES/SINKS PRESENT IN THE FLOW MODEL =   240

 MAXIMUM STEPSIZE WHICH MEETS STABILITY CRITERION OF THE SINK & SOURCE TERM
 = 0.1000E+31(WHEN MIN. R.F.=1)  AT K=   0, I=   0, J=   0

 MAXIMUM STEPSIZE WHICH MEETS STABILITY CRITERION OF THE DISPERSION TERM
 = 0.7276E-02(WHEN MIN. R.F.=1)  AT K=   3, I=   2, J=  30
     1 CALLS TO GCG PACKAGE FOR TRANSPORT TIME STEP   6 IN FLOW TIME STEP  67 STRESS PERIOD   2
    14 TOTAL ITERATIONS
 
 SOLVING FOR HEAD 
 FLOW MODEL IS TRANSIENT
 FLOW MODEL CONTAINS CONSTANT-HEAD CELLS


 MAXIMUM STEPSIZE DURING WHICH ANY PARTICLE CANNOT MOVE MORE THAN ONE CELL
 = 0.1698    (WHEN MIN. R.F.=1)  AT K=   3, I=   2, J=  30

 MAXIMUM STEPSIZE WHICH MEETS STABILITY CRITERION OF THE ADVECTION TERM
 (FOR PURE FINITE-DIFFERENCE OPTION, MIXELM=0) 
 = 0.1347    (WHEN MIN. R.F.=1)  AT K=   3, I=   2, J=  31


 TOTAL NUMBER OF POINT SOURCES/SINKS PRESENT IN THE FLOW MODEL =   240

 MAXIMUM STEPSIZE WHICH MEETS STABILITY CRITERION OF THE SINK & SOURCE TERM
 = 0.1000E+31(WHEN MIN. R.F.=1)  AT K=   0, I=   0, J=   0

 MAXIMUM STEPSIZE WHICH MEETS STABILITY CRITERION OF THE DISPERSION TERM
 = 0.7276E-02(WHEN MIN. R.F.=1)  AT K=   3, I=   2, J=  30
     1 CALLS TO GCG PACKAGE FOR TRANSPORT TIME STEP   7 IN FLOW TIME STEP  67 STRESS PERIOD   2
    13 TOTAL ITERATIONS
 
 SOLVING FOR HEAD 
 FLOW MODEL IS TRANSIENT
 FLOW MODEL CONTAINS CONSTANT-HEAD CELLS


 MAXIMUM STEPSIZE DURING WHICH ANY PARTICLE CANNOT MOVE MORE THAN ONE CELL
 = 0.1698    (WHEN MIN. R.F.=1)  AT K=   3, I=   2, J=  30

 MAXIMUM STEPSIZE WHICH MEETS STABILITY CRITERION OF THE ADVECTION TERM
 (FOR PURE FINITE-DIFFERENCE OPTION, MIXELM=0) 
 = 0.1347    (WHEN MIN. R.F.=1)  AT K=   3, I=   2, J=  31


 TOTAL NUMBER OF POINT SOURCES/SINKS PRESENT IN THE FLOW MODEL =   240

 MAXIMUM STEPSIZE WHICH MEETS STABILITY CRITERION OF THE SINK & SOURCE TERM
 = 0.1000E+31(WHEN MIN. R.F.=1)  AT K=   0, I=   0, J=   0

 MAXIMUM STEPSIZE WHICH MEETS STABILITY CRITERION OF THE DISPERSION TERM
 = 0.7276E-02(WHEN MIN. R.F.=1)  AT K=   3, I=   2, J=  30
     1 CALLS TO GCG PACKAGE FOR TRANSPORT TIME STEP   8 IN FLOW TIME STEP  67 STRESS PERIOD   2
    13 TOTAL ITERATIONS
  MAXIMUM CONCENTRATION CHANGES FOR EACH ITERATION:
  MAX. CHANGE LAYER,ROW,COL MAX. CHANGE LAYER,ROW,COL MAX. CHANGE LAYER,ROW,COL MAX. CHANGE LAYER,ROW,COL MAX. CHANGE LAYER,ROW,COL
 ------------------------------------------------------------------------------------------------------------------------------------
   0.7164E-03 ( 13,  1, 61)  0.9502E-04 (  9,  1, 57)  0.2459E-04 (  5,  2, 62)  0.9413E-05 (  8,  1, 59)  0.3423E-05 (  4,  2, 53)
   0.1843E-05 (  7,  1, 59)  0.1030E-05 (  3,  2, 28)  0.6949E-06 (  3,  2, 29)  0.5052E-06 (  4,  2, 29)  0.3083E-06 (  3,  2, 29)
   0.1947E-06 (  3,  2, 30)  0.1073E-06 (  4,  2, 30)  0.6377E-07 (  4,  2, 31)


                                          ================================================
                                                         FROM TIME =   68.000     TO    69.000    

 
 SOLVING FOR HEAD 
 FLOW MODEL IS TRANSIENT
 FLOW MODEL CONTAINS CONSTANT-HEAD CELLS


 MAXIMUM STEPSIZE DURING WHICH ANY PARTICLE CANNOT MOVE MORE THAN ONE CELL
 = 0.1698    (WHEN MIN. R.F.=1)  AT K=   3, I=   2, J=  30

 MAXIMUM STEPSIZE WHICH MEETS STABILITY CRITERION OF THE ADVECTION TERM
 (FOR PURE FINITE-DIFFERENCE OPTION, MIXELM=0) 
 = 0.1347    (WHEN MIN. R.F.=1)  AT K=   3, I=   2, J=  31


 TOTAL NUMBER OF POINT SOURCES/SINKS PRESENT IN THE FLOW MODEL =   240

 MAXIMUM STEPSIZE WHICH MEETS STABILITY CRITERION OF THE SINK & SOURCE TERM
 = 0.1000E+31(WHEN MIN. R.F.=1)  AT K=   0, I=   0, J=   0

 MAXIMUM STEPSIZE WHICH MEETS STABILITY CRITERION OF THE DISPERSION TERM
 = 0.7276E-02(WHEN MIN. R.F.=1)  AT K=   3, I=   2, J=  30


     1 CALLS TO GCG PACKAGE FOR TRANSPORT TIME STEP   1 IN FLOW TIME STEP  68 STRESS PERIOD   2
    14 TOTAL ITERATIONS

 NO OUTPUT CONTROL FOR STRESS PERIOD    2   TIME STEP  68
 
 SOLVING FOR HEAD 
 FLOW MODEL IS TRANSIENT
 FLOW MODEL CONTAINS CONSTANT-HEAD CELLS


 MAXIMUM STEPSIZE DURING WHICH ANY PARTICLE CANNOT MOVE MORE THAN ONE CELL
 = 0.1698    (WHEN MIN. R.F.=1)  AT K=   3, I=   2, J=  30

 MAXIMUM STEPSIZE WHICH MEETS STABILITY CRITERION OF THE ADVECTION TERM
 (FOR PURE FINITE-DIFFERENCE OPTION, MIXELM=0) 
 = 0.1347    (WHEN MIN. R.F.=1)  AT K=   3, I=   2, J=  31


 TOTAL NUMBER OF POINT SOURCES/SINKS PRESENT IN THE FLOW MODEL =   240

 MAXIMUM STEPSIZE WHICH MEETS STABILITY CRITERION OF THE SINK & SOURCE TERM
 = 0.1000E+31(WHEN MIN. R.F.=1)  AT K=   0, I=   0, J=   0

 MAXIMUM STEPSIZE WHICH MEETS STABILITY CRITERION OF THE DISPERSION TERM
 = 0.7276E-02(WHEN MIN. R.F.=1)  AT K=   3, I=   2, J=  30
     1 CALLS TO GCG PACKAGE FOR TRANSPORT TIME STEP   2 IN FLOW TIME STEP  68 STRESS PERIOD   2
    13 TOTAL ITERATIONS
 
 SOLVING FOR HEAD 
 FLOW MODEL IS TRANSIENT
 FLOW MODEL CONTAINS CONSTANT-HEAD CELLS


 MAXIMUM STEPSIZE DURING WHICH ANY PARTICLE CANNOT MOVE MORE THAN ONE CELL
 = 0.1698    (WHEN MIN. R.F.=1)  AT K=   3, I=   2, J=  30

 MAXIMUM STEPSIZE WHICH MEETS STABILITY CRITERION OF THE ADVECTION TERM
 (FOR PURE FINITE-DIFFERENCE OPTION, MIXELM=0) 
 = 0.1347    (WHEN MIN. R.F.=1)  AT K=   3, I=   2, J=  31


 TOTAL NUMBER OF POINT SOURCES/SINKS PRESENT IN THE FLOW MODEL =   240

 MAXIMUM STEPSIZE WHICH MEETS STABILITY CRITERION OF THE SINK & SOURCE TERM
 = 0.1000E+31(WHEN MIN. R.F.=1)  AT K=   0, I=   0, J=   0

 MAXIMUM STEPSIZE WHICH MEETS STABILITY CRITERION OF THE DISPERSION TERM
 = 0.7276E-02(WHEN MIN. R.F.=1)  AT K=   3, I=   2, J=  30
     1 CALLS TO GCG PACKAGE FOR TRANSPORT TIME STEP   3 IN FLOW TIME STEP  68 STRESS PERIOD   2
    14 TOTAL ITERATIONS
 
 SOLVING FOR HEAD 
 FLOW MODEL IS TRANSIENT
 FLOW MODEL CONTAINS CONSTANT-HEAD CELLS


 MAXIMUM STEPSIZE DURING WHICH ANY PARTICLE CANNOT MOVE MORE THAN ONE CELL
 = 0.1698    (WHEN MIN. R.F.=1)  AT K=   3, I=   2, J=  30

 MAXIMUM STEPSIZE WHICH MEETS STABILITY CRITERION OF THE ADVECTION TERM
 (FOR PURE FINITE-DIFFERENCE OPTION, MIXELM=0) 
 = 0.1347    (WHEN MIN. R.F.=1)  AT K=   3, I=   2, J=  31


 TOTAL NUMBER OF POINT SOURCES/SINKS PRESENT IN THE FLOW MODEL =   240

 MAXIMUM STEPSIZE WHICH MEETS STABILITY CRITERION OF THE SINK & SOURCE TERM
 = 0.1000E+31(WHEN MIN. R.F.=1)  AT K=   0, I=   0, J=   0

 MAXIMUM STEPSIZE WHICH MEETS STABILITY CRITERION OF THE DISPERSION TERM
 = 0.7276E-02(WHEN MIN. R.F.=1)  AT K=   3, I=   2, J=  30
     1 CALLS TO GCG PACKAGE FOR TRANSPORT TIME STEP   4 IN FLOW TIME STEP  68 STRESS PERIOD   2
    13 TOTAL ITERATIONS
 
 SOLVING FOR HEAD 
 FLOW MODEL IS TRANSIENT
 FLOW MODEL CONTAINS CONSTANT-HEAD CELLS


 MAXIMUM STEPSIZE DURING WHICH ANY PARTICLE CANNOT MOVE MORE THAN ONE CELL
 = 0.1698    (WHEN MIN. R.F.=1)  AT K=   3, I=   2, J=  30

 MAXIMUM STEPSIZE WHICH MEETS STABILITY CRITERION OF THE ADVECTION TERM
 (FOR PURE FINITE-DIFFERENCE OPTION, MIXELM=0) 
 = 0.1347    (WHEN MIN. R.F.=1)  AT K=   3, I=   2, J=  31


 TOTAL NUMBER OF POINT SOURCES/SINKS PRESENT IN THE FLOW MODEL =   240

 MAXIMUM STEPSIZE WHICH MEETS STABILITY CRITERION OF THE SINK & SOURCE TERM
 = 0.1000E+31(WHEN MIN. R.F.=1)  AT K=   0, I=   0, J=   0

 MAXIMUM STEPSIZE WHICH MEETS STABILITY CRITERION OF THE DISPERSION TERM
 = 0.7276E-02(WHEN MIN. R.F.=1)  AT K=   3, I=   2, J=  30
     1 CALLS TO GCG PACKAGE FOR TRANSPORT TIME STEP   5 IN FLOW TIME STEP  68 STRESS PERIOD   2
    14 TOTAL ITERATIONS
 
 SOLVING FOR HEAD 
 FLOW MODEL IS TRANSIENT
 FLOW MODEL CONTAINS CONSTANT-HEAD CELLS


 MAXIMUM STEPSIZE DURING WHICH ANY PARTICLE CANNOT MOVE MORE THAN ONE CELL
 = 0.1698    (WHEN MIN. R.F.=1)  AT K=   3, I=   2, J=  30

 MAXIMUM STEPSIZE WHICH MEETS STABILITY CRITERION OF THE ADVECTION TERM
 (FOR PURE FINITE-DIFFERENCE OPTION, MIXELM=0) 
 = 0.1347    (WHEN MIN. R.F.=1)  AT K=   3, I=   2, J=  31


 TOTAL NUMBER OF POINT SOURCES/SINKS PRESENT IN THE FLOW MODEL =   240

 MAXIMUM STEPSIZE WHICH MEETS STABILITY CRITERION OF THE SINK & SOURCE TERM
 = 0.1000E+31(WHEN MIN. R.F.=1)  AT K=   0, I=   0, J=   0

 MAXIMUM STEPSIZE WHICH MEETS STABILITY CRITERION OF THE DISPERSION TERM
 = 0.7276E-02(WHEN MIN. R.F.=1)  AT K=   3, I=   2, J=  30
     1 CALLS TO GCG PACKAGE FOR TRANSPORT TIME STEP   6 IN FLOW TIME STEP  68 STRESS PERIOD   2
    13 TOTAL ITERATIONS
 
 SOLVING FOR HEAD 
 FLOW MODEL IS TRANSIENT
 FLOW MODEL CONTAINS CONSTANT-HEAD CELLS


 MAXIMUM STEPSIZE DURING WHICH ANY PARTICLE CANNOT MOVE MORE THAN ONE CELL
 = 0.1698    (WHEN MIN. R.F.=1)  AT K=   3, I=   2, J=  30

 MAXIMUM STEPSIZE WHICH MEETS STABILITY CRITERION OF THE ADVECTION TERM
 (FOR PURE FINITE-DIFFERENCE OPTION, MIXELM=0) 
 = 0.1347    (WHEN MIN. R.F.=1)  AT K=   3, I=   2, J=  31


 TOTAL NUMBER OF POINT SOURCES/SINKS PRESENT IN THE FLOW MODEL =   240

 MAXIMUM STEPSIZE WHICH MEETS STABILITY CRITERION OF THE SINK & SOURCE TERM
 = 0.1000E+31(WHEN MIN. R.F.=1)  AT K=   0, I=   0, J=   0

 MAXIMUM STEPSIZE WHICH MEETS STABILITY CRITERION OF THE DISPERSION TERM
 = 0.7276E-02(WHEN MIN. R.F.=1)  AT K=   3, I=   2, J=  30
     1 CALLS TO GCG PACKAGE FOR TRANSPORT TIME STEP   7 IN FLOW TIME STEP  68 STRESS PERIOD   2
    14 TOTAL ITERATIONS
 
 SOLVING FOR HEAD 
 FLOW MODEL IS TRANSIENT
 FLOW MODEL CONTAINS CONSTANT-HEAD CELLS


 MAXIMUM STEPSIZE DURING WHICH ANY PARTICLE CANNOT MOVE MORE THAN ONE CELL
 = 0.1698    (WHEN MIN. R.F.=1)  AT K=   3, I=   2, J=  30

 MAXIMUM STEPSIZE WHICH MEETS STABILITY CRITERION OF THE ADVECTION TERM
 (FOR PURE FINITE-DIFFERENCE OPTION, MIXELM=0) 
 = 0.1347    (WHEN MIN. R.F.=1)  AT K=   3, I=   2, J=  31


 TOTAL NUMBER OF POINT SOURCES/SINKS PRESENT IN THE FLOW MODEL =   240

 MAXIMUM STEPSIZE WHICH MEETS STABILITY CRITERION OF THE SINK & SOURCE TERM
 = 0.1000E+31(WHEN MIN. R.F.=1)  AT K=   0, I=   0, J=   0

 MAXIMUM STEPSIZE WHICH MEETS STABILITY CRITERION OF THE DISPERSION TERM
 = 0.7276E-02(WHEN MIN. R.F.=1)  AT K=   3, I=   2, J=  30
     1 CALLS TO GCG PACKAGE FOR TRANSPORT TIME STEP   8 IN FLOW TIME STEP  68 STRESS PERIOD   2
    12 TOTAL ITERATIONS
  MAXIMUM CONCENTRATION CHANGES FOR EACH ITERATION:
  MAX. CHANGE LAYER,ROW,COL MAX. CHANGE LAYER,ROW,COL MAX. CHANGE LAYER,ROW,COL MAX. CHANGE LAYER,ROW,COL MAX. CHANGE LAYER,ROW,COL
 ------------------------------------------------------------------------------------------------------------------------------------
   0.7024E-03 ( 13,  1, 61)  0.9235E-04 (  9,  1, 57)  0.2387E-04 (  5,  2, 62)  0.9101E-05 (  8,  1, 59)  0.3296E-05 (  4,  2, 53)
   0.1785E-05 (  7,  1, 59)  0.9995E-06 (  3,  2, 28)  0.6821E-06 (  3,  2, 29)  0.4776E-06 (  4,  2, 29)  0.2822E-06 (  3,  2, 29)
   0.1718E-06 (  3,  2, 30)  0.9200E-07 (  4,  2, 30)


                                          ================================================
                                                         FROM TIME =   69.000     TO    70.000    

 
 SOLVING FOR HEAD 
 FLOW MODEL IS TRANSIENT
 FLOW MODEL CONTAINS CONSTANT-HEAD CELLS


 MAXIMUM STEPSIZE DURING WHICH ANY PARTICLE CANNOT MOVE MORE THAN ONE CELL
 = 0.1698    (WHEN MIN. R.F.=1)  AT K=   3, I=   2, J=  30

 MAXIMUM STEPSIZE WHICH MEETS STABILITY CRITERION OF THE ADVECTION TERM
 (FOR PURE FINITE-DIFFERENCE OPTION, MIXELM=0) 
 = 0.1347    (WHEN MIN. R.F.=1)  AT K=   3, I=   2, J=  31


 TOTAL NUMBER OF POINT SOURCES/SINKS PRESENT IN THE FLOW MODEL =   240

 MAXIMUM STEPSIZE WHICH MEETS STABILITY CRITERION OF THE SINK & SOURCE TERM
 = 0.1000E+31(WHEN MIN. R.F.=1)  AT K=   0, I=   0, J=   0

 MAXIMUM STEPSIZE WHICH MEETS STABILITY CRITERION OF THE DISPERSION TERM
 = 0.7276E-02(WHEN MIN. R.F.=1)  AT K=   3, I=   2, J=  30


     1 CALLS TO GCG PACKAGE FOR TRANSPORT TIME STEP   1 IN FLOW TIME STEP  69 STRESS PERIOD   2
    13 TOTAL ITERATIONS

 NO OUTPUT CONTROL FOR STRESS PERIOD    2   TIME STEP  69
 
 SOLVING FOR HEAD 
 FLOW MODEL IS TRANSIENT
 FLOW MODEL CONTAINS CONSTANT-HEAD CELLS


 MAXIMUM STEPSIZE DURING WHICH ANY PARTICLE CANNOT MOVE MORE THAN ONE CELL
 = 0.1698    (WHEN MIN. R.F.=1)  AT K=   3, I=   2, J=  30

 MAXIMUM STEPSIZE WHICH MEETS STABILITY CRITERION OF THE ADVECTION TERM
 (FOR PURE FINITE-DIFFERENCE OPTION, MIXELM=0) 
 = 0.1347    (WHEN MIN. R.F.=1)  AT K=   3, I=   2, J=  31


 TOTAL NUMBER OF POINT SOURCES/SINKS PRESENT IN THE FLOW MODEL =   240

 MAXIMUM STEPSIZE WHICH MEETS STABILITY CRITERION OF THE SINK & SOURCE TERM
 = 0.1000E+31(WHEN MIN. R.F.=1)  AT K=   0, I=   0, J=   0

 MAXIMUM STEPSIZE WHICH MEETS STABILITY CRITERION OF THE DISPERSION TERM
 = 0.7276E-02(WHEN MIN. R.F.=1)  AT K=   3, I=   2, J=  30
     1 CALLS TO GCG PACKAGE FOR TRANSPORT TIME STEP   2 IN FLOW TIME STEP  69 STRESS PERIOD   2
    14 TOTAL ITERATIONS
 
 SOLVING FOR HEAD 
 FLOW MODEL IS TRANSIENT
 FLOW MODEL CONTAINS CONSTANT-HEAD CELLS


 MAXIMUM STEPSIZE DURING WHICH ANY PARTICLE CANNOT MOVE MORE THAN ONE CELL
 = 0.1698    (WHEN MIN. R.F.=1)  AT K=   3, I=   2, J=  30

 MAXIMUM STEPSIZE WHICH MEETS STABILITY CRITERION OF THE ADVECTION TERM
 (FOR PURE FINITE-DIFFERENCE OPTION, MIXELM=0) 
 = 0.1347    (WHEN MIN. R.F.=1)  AT K=   3, I=   2, J=  31


 TOTAL NUMBER OF POINT SOURCES/SINKS PRESENT IN THE FLOW MODEL =   240

 MAXIMUM STEPSIZE WHICH MEETS STABILITY CRITERION OF THE SINK & SOURCE TERM
 = 0.1000E+31(WHEN MIN. R.F.=1)  AT K=   0, I=   0, J=   0

 MAXIMUM STEPSIZE WHICH MEETS STABILITY CRITERION OF THE DISPERSION TERM
 = 0.7276E-02(WHEN MIN. R.F.=1)  AT K=   3, I=   2, J=  30
     1 CALLS TO GCG PACKAGE FOR TRANSPORT TIME STEP   3 IN FLOW TIME STEP  69 STRESS PERIOD   2
    13 TOTAL ITERATIONS
 
 SOLVING FOR HEAD 
 FLOW MODEL IS TRANSIENT
 FLOW MODEL CONTAINS CONSTANT-HEAD CELLS


 MAXIMUM STEPSIZE DURING WHICH ANY PARTICLE CANNOT MOVE MORE THAN ONE CELL
 = 0.1698    (WHEN MIN. R.F.=1)  AT K=   3, I=   2, J=  30

 MAXIMUM STEPSIZE WHICH MEETS STABILITY CRITERION OF THE ADVECTION TERM
 (FOR PURE FINITE-DIFFERENCE OPTION, MIXELM=0) 
 = 0.1347    (WHEN MIN. R.F.=1)  AT K=   3, I=   2, J=  31


 TOTAL NUMBER OF POINT SOURCES/SINKS PRESENT IN THE FLOW MODEL =   240

 MAXIMUM STEPSIZE WHICH MEETS STABILITY CRITERION OF THE SINK & SOURCE TERM
 = 0.1000E+31(WHEN MIN. R.F.=1)  AT K=   0, I=   0, J=   0

 MAXIMUM STEPSIZE WHICH MEETS STABILITY CRITERION OF THE DISPERSION TERM
 = 0.7276E-02(WHEN MIN. R.F.=1)  AT K=   3, I=   2, J=  30
     1 CALLS TO GCG PACKAGE FOR TRANSPORT TIME STEP   4 IN FLOW TIME STEP  69 STRESS PERIOD   2
    14 TOTAL ITERATIONS
 
 SOLVING FOR HEAD 
 FLOW MODEL IS TRANSIENT
 FLOW MODEL CONTAINS CONSTANT-HEAD CELLS


 MAXIMUM STEPSIZE DURING WHICH ANY PARTICLE CANNOT MOVE MORE THAN ONE CELL
 = 0.1698    (WHEN MIN. R.F.=1)  AT K=   3, I=   2, J=  30

 MAXIMUM STEPSIZE WHICH MEETS STABILITY CRITERION OF THE ADVECTION TERM
 (FOR PURE FINITE-DIFFERENCE OPTION, MIXELM=0) 
 = 0.1347    (WHEN MIN. R.F.=1)  AT K=   3, I=   2, J=  31


 TOTAL NUMBER OF POINT SOURCES/SINKS PRESENT IN THE FLOW MODEL =   240

 MAXIMUM STEPSIZE WHICH MEETS STABILITY CRITERION OF THE SINK & SOURCE TERM
 = 0.1000E+31(WHEN MIN. R.F.=1)  AT K=   0, I=   0, J=   0

 MAXIMUM STEPSIZE WHICH MEETS STABILITY CRITERION OF THE DISPERSION TERM
 = 0.7276E-02(WHEN MIN. R.F.=1)  AT K=   3, I=   2, J=  30
     1 CALLS TO GCG PACKAGE FOR TRANSPORT TIME STEP   5 IN FLOW TIME STEP  69 STRESS PERIOD   2
    13 TOTAL ITERATIONS
 
 SOLVING FOR HEAD 
 FLOW MODEL IS TRANSIENT
 FLOW MODEL CONTAINS CONSTANT-HEAD CELLS


 MAXIMUM STEPSIZE DURING WHICH ANY PARTICLE CANNOT MOVE MORE THAN ONE CELL
 = 0.1698    (WHEN MIN. R.F.=1)  AT K=   3, I=   2, J=  30

 MAXIMUM STEPSIZE WHICH MEETS STABILITY CRITERION OF THE ADVECTION TERM
 (FOR PURE FINITE-DIFFERENCE OPTION, MIXELM=0) 
 = 0.1347    (WHEN MIN. R.F.=1)  AT K=   3, I=   2, J=  31


 TOTAL NUMBER OF POINT SOURCES/SINKS PRESENT IN THE FLOW MODEL =   240

 MAXIMUM STEPSIZE WHICH MEETS STABILITY CRITERION OF THE SINK & SOURCE TERM
 = 0.1000E+31(WHEN MIN. R.F.=1)  AT K=   0, I=   0, J=   0

 MAXIMUM STEPSIZE WHICH MEETS STABILITY CRITERION OF THE DISPERSION TERM
 = 0.7276E-02(WHEN MIN. R.F.=1)  AT K=   3, I=   2, J=  30
     1 CALLS TO GCG PACKAGE FOR TRANSPORT TIME STEP   6 IN FLOW TIME STEP  69 STRESS PERIOD   2
    14 TOTAL ITERATIONS
 
 SOLVING FOR HEAD 
 FLOW MODEL IS TRANSIENT
 FLOW MODEL CONTAINS CONSTANT-HEAD CELLS


 MAXIMUM STEPSIZE DURING WHICH ANY PARTICLE CANNOT MOVE MORE THAN ONE CELL
 = 0.1698    (WHEN MIN. R.F.=1)  AT K=   3, I=   2, J=  30

 MAXIMUM STEPSIZE WHICH MEETS STABILITY CRITERION OF THE ADVECTION TERM
 (FOR PURE FINITE-DIFFERENCE OPTION, MIXELM=0) 
 = 0.1347    (WHEN MIN. R.F.=1)  AT K=   3, I=   2, J=  31


 TOTAL NUMBER OF POINT SOURCES/SINKS PRESENT IN THE FLOW MODEL =   240

 MAXIMUM STEPSIZE WHICH MEETS STABILITY CRITERION OF THE SINK & SOURCE TERM
 = 0.1000E+31(WHEN MIN. R.F.=1)  AT K=   0, I=   0, J=   0

 MAXIMUM STEPSIZE WHICH MEETS STABILITY CRITERION OF THE DISPERSION TERM
 = 0.7276E-02(WHEN MIN. R.F.=1)  AT K=   3, I=   2, J=  30
     1 CALLS TO GCG PACKAGE FOR TRANSPORT TIME STEP   7 IN FLOW TIME STEP  69 STRESS PERIOD   2
    13 TOTAL ITERATIONS
 
 SOLVING FOR HEAD 
 FLOW MODEL IS TRANSIENT
 FLOW MODEL CONTAINS CONSTANT-HEAD CELLS


 MAXIMUM STEPSIZE DURING WHICH ANY PARTICLE CANNOT MOVE MORE THAN ONE CELL
 = 0.1698    (WHEN MIN. R.F.=1)  AT K=   3, I=   2, J=  30

 MAXIMUM STEPSIZE WHICH MEETS STABILITY CRITERION OF THE ADVECTION TERM
 (FOR PURE FINITE-DIFFERENCE OPTION, MIXELM=0) 
 = 0.1347    (WHEN MIN. R.F.=1)  AT K=   3, I=   2, J=  31


 TOTAL NUMBER OF POINT SOURCES/SINKS PRESENT IN THE FLOW MODEL =   240

 MAXIMUM STEPSIZE WHICH MEETS STABILITY CRITERION OF THE SINK & SOURCE TERM
 = 0.1000E+31(WHEN MIN. R.F.=1)  AT K=   0, I=   0, J=   0

 MAXIMUM STEPSIZE WHICH MEETS STABILITY CRITERION OF THE DISPERSION TERM
 = 0.7276E-02(WHEN MIN. R.F.=1)  AT K=   3, I=   2, J=  30
     1 CALLS TO GCG PACKAGE FOR TRANSPORT TIME STEP   8 IN FLOW TIME STEP  69 STRESS PERIOD   2
    13 TOTAL ITERATIONS
  MAXIMUM CONCENTRATION CHANGES FOR EACH ITERATION:
  MAX. CHANGE LAYER,ROW,COL MAX. CHANGE LAYER,ROW,COL MAX. CHANGE LAYER,ROW,COL MAX. CHANGE LAYER,ROW,COL MAX. CHANGE LAYER,ROW,COL
 ------------------------------------------------------------------------------------------------------------------------------------
   0.6873E-03 ( 13,  1, 61)  0.8975E-04 (  9,  1, 57)  0.2318E-04 (  5,  2, 62)  0.8801E-05 (  8,  1, 59)  0.3178E-05 (  4,  2, 53)
   0.1725E-05 (  7,  1, 59)  0.9195E-06 (  3,  2, 28)  0.6125E-06 (  3,  2, 29)  0.4460E-06 (  4,  2, 29)  0.2799E-06 (  3,  2, 29)
   0.1810E-06 (  3,  2, 30)  0.1019E-06 (  4,  2, 30)  0.5960E-07 (  4,  2, 31)


                                          ================================================
                                                         FROM TIME =   70.000     TO    71.000    

 
 SOLVING FOR HEAD 
 FLOW MODEL IS TRANSIENT
 FLOW MODEL CONTAINS CONSTANT-HEAD CELLS


 MAXIMUM STEPSIZE DURING WHICH ANY PARTICLE CANNOT MOVE MORE THAN ONE CELL
 = 0.1698    (WHEN MIN. R.F.=1)  AT K=   3, I=   2, J=  30

 MAXIMUM STEPSIZE WHICH MEETS STABILITY CRITERION OF THE ADVECTION TERM
 (FOR PURE FINITE-DIFFERENCE OPTION, MIXELM=0) 
 = 0.1347    (WHEN MIN. R.F.=1)  AT K=   3, I=   2, J=  31


 TOTAL NUMBER OF POINT SOURCES/SINKS PRESENT IN THE FLOW MODEL =   240

 MAXIMUM STEPSIZE WHICH MEETS STABILITY CRITERION OF THE SINK & SOURCE TERM
 = 0.1000E+31(WHEN MIN. R.F.=1)  AT K=   0, I=   0, J=   0

 MAXIMUM STEPSIZE WHICH MEETS STABILITY CRITERION OF THE DISPERSION TERM
 = 0.7276E-02(WHEN MIN. R.F.=1)  AT K=   3, I=   2, J=  30


     1 CALLS TO GCG PACKAGE FOR TRANSPORT TIME STEP   1 IN FLOW TIME STEP  70 STRESS PERIOD   2
    13 TOTAL ITERATIONS

 NO OUTPUT CONTROL FOR STRESS PERIOD    2   TIME STEP  70
 
 SOLVING FOR HEAD 
 FLOW MODEL IS TRANSIENT
 FLOW MODEL CONTAINS CONSTANT-HEAD CELLS


 MAXIMUM STEPSIZE DURING WHICH ANY PARTICLE CANNOT MOVE MORE THAN ONE CELL
 = 0.1698    (WHEN MIN. R.F.=1)  AT K=   3, I=   2, J=  30

 MAXIMUM STEPSIZE WHICH MEETS STABILITY CRITERION OF THE ADVECTION TERM
 (FOR PURE FINITE-DIFFERENCE OPTION, MIXELM=0) 
 = 0.1347    (WHEN MIN. R.F.=1)  AT K=   3, I=   2, J=  31


 TOTAL NUMBER OF POINT SOURCES/SINKS PRESENT IN THE FLOW MODEL =   240

 MAXIMUM STEPSIZE WHICH MEETS STABILITY CRITERION OF THE SINK & SOURCE TERM
 = 0.1000E+31(WHEN MIN. R.F.=1)  AT K=   0, I=   0, J=   0

 MAXIMUM STEPSIZE WHICH MEETS STABILITY CRITERION OF THE DISPERSION TERM
 = 0.7276E-02(WHEN MIN. R.F.=1)  AT K=   3, I=   2, J=  30
     1 CALLS TO GCG PACKAGE FOR TRANSPORT TIME STEP   2 IN FLOW TIME STEP  70 STRESS PERIOD   2
    14 TOTAL ITERATIONS
 
 SOLVING FOR HEAD 
 FLOW MODEL IS TRANSIENT
 FLOW MODEL CONTAINS CONSTANT-HEAD CELLS


 MAXIMUM STEPSIZE DURING WHICH ANY PARTICLE CANNOT MOVE MORE THAN ONE CELL
 = 0.1698    (WHEN MIN. R.F.=1)  AT K=   3, I=   2, J=  30

 MAXIMUM STEPSIZE WHICH MEETS STABILITY CRITERION OF THE ADVECTION TERM
 (FOR PURE FINITE-DIFFERENCE OPTION, MIXELM=0) 
 = 0.1347    (WHEN MIN. R.F.=1)  AT K=   3, I=   2, J=  31


 TOTAL NUMBER OF POINT SOURCES/SINKS PRESENT IN THE FLOW MODEL =   240

 MAXIMUM STEPSIZE WHICH MEETS STABILITY CRITERION OF THE SINK & SOURCE TERM
 = 0.1000E+31(WHEN MIN. R.F.=1)  AT K=   0, I=   0, J=   0

 MAXIMUM STEPSIZE WHICH MEETS STABILITY CRITERION OF THE DISPERSION TERM
 = 0.7276E-02(WHEN MIN. R.F.=1)  AT K=   3, I=   2, J=  30
     1 CALLS TO GCG PACKAGE FOR TRANSPORT TIME STEP   3 IN FLOW TIME STEP  70 STRESS PERIOD   2
    13 TOTAL ITERATIONS
 
 SOLVING FOR HEAD 
 FLOW MODEL IS TRANSIENT
 FLOW MODEL CONTAINS CONSTANT-HEAD CELLS


 MAXIMUM STEPSIZE DURING WHICH ANY PARTICLE CANNOT MOVE MORE THAN ONE CELL
 = 0.1698    (WHEN MIN. R.F.=1)  AT K=   3, I=   2, J=  30

 MAXIMUM STEPSIZE WHICH MEETS STABILITY CRITERION OF THE ADVECTION TERM
 (FOR PURE FINITE-DIFFERENCE OPTION, MIXELM=0) 
 = 0.1347    (WHEN MIN. R.F.=1)  AT K=   3, I=   2, J=  31


 TOTAL NUMBER OF POINT SOURCES/SINKS PRESENT IN THE FLOW MODEL =   240

 MAXIMUM STEPSIZE WHICH MEETS STABILITY CRITERION OF THE SINK & SOURCE TERM
 = 0.1000E+31(WHEN MIN. R.F.=1)  AT K=   0, I=   0, J=   0

 MAXIMUM STEPSIZE WHICH MEETS STABILITY CRITERION OF THE DISPERSION TERM
 = 0.7276E-02(WHEN MIN. R.F.=1)  AT K=   3, I=   2, J=  30
     1 CALLS TO GCG PACKAGE FOR TRANSPORT TIME STEP   4 IN FLOW TIME STEP  70 STRESS PERIOD   2
    13 TOTAL ITERATIONS
 
 SOLVING FOR HEAD 
 FLOW MODEL IS TRANSIENT
 FLOW MODEL CONTAINS CONSTANT-HEAD CELLS


 MAXIMUM STEPSIZE DURING WHICH ANY PARTICLE CANNOT MOVE MORE THAN ONE CELL
 = 0.1698    (WHEN MIN. R.F.=1)  AT K=   3, I=   2, J=  30

 MAXIMUM STEPSIZE WHICH MEETS STABILITY CRITERION OF THE ADVECTION TERM
 (FOR PURE FINITE-DIFFERENCE OPTION, MIXELM=0) 
 = 0.1347    (WHEN MIN. R.F.=1)  AT K=   3, I=   2, J=  31


 TOTAL NUMBER OF POINT SOURCES/SINKS PRESENT IN THE FLOW MODEL =   240

 MAXIMUM STEPSIZE WHICH MEETS STABILITY CRITERION OF THE SINK & SOURCE TERM
 = 0.1000E+31(WHEN MIN. R.F.=1)  AT K=   0, I=   0, J=   0

 MAXIMUM STEPSIZE WHICH MEETS STABILITY CRITERION OF THE DISPERSION TERM
 = 0.7276E-02(WHEN MIN. R.F.=1)  AT K=   3, I=   2, J=  30
     1 CALLS TO GCG PACKAGE FOR TRANSPORT TIME STEP   5 IN FLOW TIME STEP  70 STRESS PERIOD   2
    14 TOTAL ITERATIONS
 
 SOLVING FOR HEAD 
 FLOW MODEL IS TRANSIENT
 FLOW MODEL CONTAINS CONSTANT-HEAD CELLS


 MAXIMUM STEPSIZE DURING WHICH ANY PARTICLE CANNOT MOVE MORE THAN ONE CELL
 = 0.1698    (WHEN MIN. R.F.=1)  AT K=   3, I=   2, J=  30

 MAXIMUM STEPSIZE WHICH MEETS STABILITY CRITERION OF THE ADVECTION TERM
 (FOR PURE FINITE-DIFFERENCE OPTION, MIXELM=0) 
 = 0.1347    (WHEN MIN. R.F.=1)  AT K=   3, I=   2, J=  31


 TOTAL NUMBER OF POINT SOURCES/SINKS PRESENT IN THE FLOW MODEL =   240

 MAXIMUM STEPSIZE WHICH MEETS STABILITY CRITERION OF THE SINK & SOURCE TERM
 = 0.1000E+31(WHEN MIN. R.F.=1)  AT K=   0, I=   0, J=   0

 MAXIMUM STEPSIZE WHICH MEETS STABILITY CRITERION OF THE DISPERSION TERM
 = 0.7276E-02(WHEN MIN. R.F.=1)  AT K=   3, I=   2, J=  30
     1 CALLS TO GCG PACKAGE FOR TRANSPORT TIME STEP   6 IN FLOW TIME STEP  70 STRESS PERIOD   2
    13 TOTAL ITERATIONS
 
 SOLVING FOR HEAD 
 FLOW MODEL IS TRANSIENT
 FLOW MODEL CONTAINS CONSTANT-HEAD CELLS


 MAXIMUM STEPSIZE DURING WHICH ANY PARTICLE CANNOT MOVE MORE THAN ONE CELL
 = 0.1698    (WHEN MIN. R.F.=1)  AT K=   3, I=   2, J=  30

 MAXIMUM STEPSIZE WHICH MEETS STABILITY CRITERION OF THE ADVECTION TERM
 (FOR PURE FINITE-DIFFERENCE OPTION, MIXELM=0) 
 = 0.1347    (WHEN MIN. R.F.=1)  AT K=   3, I=   2, J=  31


 TOTAL NUMBER OF POINT SOURCES/SINKS PRESENT IN THE FLOW MODEL =   240

 MAXIMUM STEPSIZE WHICH MEETS STABILITY CRITERION OF THE SINK & SOURCE TERM
 = 0.1000E+31(WHEN MIN. R.F.=1)  AT K=   0, I=   0, J=   0

 MAXIMUM STEPSIZE WHICH MEETS STABILITY CRITERION OF THE DISPERSION TERM
 = 0.7276E-02(WHEN MIN. R.F.=1)  AT K=   3, I=   2, J=  30
     1 CALLS TO GCG PACKAGE FOR TRANSPORT TIME STEP   7 IN FLOW TIME STEP  70 STRESS PERIOD   2
    13 TOTAL ITERATIONS
 
 SOLVING FOR HEAD 
 FLOW MODEL IS TRANSIENT
 FLOW MODEL CONTAINS CONSTANT-HEAD CELLS


 MAXIMUM STEPSIZE DURING WHICH ANY PARTICLE CANNOT MOVE MORE THAN ONE CELL
 = 0.1698    (WHEN MIN. R.F.=1)  AT K=   3, I=   2, J=  30

 MAXIMUM STEPSIZE WHICH MEETS STABILITY CRITERION OF THE ADVECTION TERM
 (FOR PURE FINITE-DIFFERENCE OPTION, MIXELM=0) 
 = 0.1347    (WHEN MIN. R.F.=1)  AT K=   3, I=   2, J=  31


 TOTAL NUMBER OF POINT SOURCES/SINKS PRESENT IN THE FLOW MODEL =   240

 MAXIMUM STEPSIZE WHICH MEETS STABILITY CRITERION OF THE SINK & SOURCE TERM
 = 0.1000E+31(WHEN MIN. R.F.=1)  AT K=   0, I=   0, J=   0

 MAXIMUM STEPSIZE WHICH MEETS STABILITY CRITERION OF THE DISPERSION TERM
 = 0.7276E-02(WHEN MIN. R.F.=1)  AT K=   3, I=   2, J=  30
     1 CALLS TO GCG PACKAGE FOR TRANSPORT TIME STEP   8 IN FLOW TIME STEP  70 STRESS PERIOD   2
    12 TOTAL ITERATIONS
  MAXIMUM CONCENTRATION CHANGES FOR EACH ITERATION:
  MAX. CHANGE LAYER,ROW,COL MAX. CHANGE LAYER,ROW,COL MAX. CHANGE LAYER,ROW,COL MAX. CHANGE LAYER,ROW,COL MAX. CHANGE LAYER,ROW,COL
 ------------------------------------------------------------------------------------------------------------------------------------
   0.6735E-03 ( 13,  1, 61)  0.8724E-04 (  9,  1, 57)  0.2251E-04 (  5,  2, 62)  0.8512E-05 (  8,  1, 59)  0.3063E-05 (  4,  2, 53)
   0.1673E-05 (  7,  1, 59)  0.8779E-06 (  3,  2, 28)  0.5870E-06 (  3,  2, 29)  0.4213E-06 (  4,  2, 29)  0.2663E-06 (  3,  2, 29)
   0.1736E-06 (  3,  2, 30)  0.9761E-07 (  4,  2, 30)


                                          ================================================
                                                         FROM TIME =   71.000     TO    72.000    

 
 SOLVING FOR HEAD 
 FLOW MODEL IS TRANSIENT
 FLOW MODEL CONTAINS CONSTANT-HEAD CELLS


 MAXIMUM STEPSIZE DURING WHICH ANY PARTICLE CANNOT MOVE MORE THAN ONE CELL
 = 0.1698    (WHEN MIN. R.F.=1)  AT K=   3, I=   2, J=  30

 MAXIMUM STEPSIZE WHICH MEETS STABILITY CRITERION OF THE ADVECTION TERM
 (FOR PURE FINITE-DIFFERENCE OPTION, MIXELM=0) 
 = 0.1347    (WHEN MIN. R.F.=1)  AT K=   3, I=   2, J=  31


 TOTAL NUMBER OF POINT SOURCES/SINKS PRESENT IN THE FLOW MODEL =   240

 MAXIMUM STEPSIZE WHICH MEETS STABILITY CRITERION OF THE SINK & SOURCE TERM
 = 0.1000E+31(WHEN MIN. R.F.=1)  AT K=   0, I=   0, J=   0

 MAXIMUM STEPSIZE WHICH MEETS STABILITY CRITERION OF THE DISPERSION TERM
 = 0.7276E-02(WHEN MIN. R.F.=1)  AT K=   3, I=   2, J=  30


     1 CALLS TO GCG PACKAGE FOR TRANSPORT TIME STEP   1 IN FLOW TIME STEP  71 STRESS PERIOD   2
    13 TOTAL ITERATIONS

 NO OUTPUT CONTROL FOR STRESS PERIOD    2   TIME STEP  71
 
 SOLVING FOR HEAD 
 FLOW MODEL IS TRANSIENT
 FLOW MODEL CONTAINS CONSTANT-HEAD CELLS


 MAXIMUM STEPSIZE DURING WHICH ANY PARTICLE CANNOT MOVE MORE THAN ONE CELL
 = 0.1698    (WHEN MIN. R.F.=1)  AT K=   3, I=   2, J=  30

 MAXIMUM STEPSIZE WHICH MEETS STABILITY CRITERION OF THE ADVECTION TERM
 (FOR PURE FINITE-DIFFERENCE OPTION, MIXELM=0) 
 = 0.1347    (WHEN MIN. R.F.=1)  AT K=   3, I=   2, J=  31


 TOTAL NUMBER OF POINT SOURCES/SINKS PRESENT IN THE FLOW MODEL =   240

 MAXIMUM STEPSIZE WHICH MEETS STABILITY CRITERION OF THE SINK & SOURCE TERM
 = 0.1000E+31(WHEN MIN. R.F.=1)  AT K=   0, I=   0, J=   0

 MAXIMUM STEPSIZE WHICH MEETS STABILITY CRITERION OF THE DISPERSION TERM
 = 0.7276E-02(WHEN MIN. R.F.=1)  AT K=   3, I=   2, J=  30
     1 CALLS TO GCG PACKAGE FOR TRANSPORT TIME STEP   2 IN FLOW TIME STEP  71 STRESS PERIOD   2
    13 TOTAL ITERATIONS
 
 SOLVING FOR HEAD 
 FLOW MODEL IS TRANSIENT
 FLOW MODEL CONTAINS CONSTANT-HEAD CELLS


 MAXIMUM STEPSIZE DURING WHICH ANY PARTICLE CANNOT MOVE MORE THAN ONE CELL
 = 0.1698    (WHEN MIN. R.F.=1)  AT K=   3, I=   2, J=  30

 MAXIMUM STEPSIZE WHICH MEETS STABILITY CRITERION OF THE ADVECTION TERM
 (FOR PURE FINITE-DIFFERENCE OPTION, MIXELM=0) 
 = 0.1347    (WHEN MIN. R.F.=1)  AT K=   3, I=   2, J=  31


 TOTAL NUMBER OF POINT SOURCES/SINKS PRESENT IN THE FLOW MODEL =   240

 MAXIMUM STEPSIZE WHICH MEETS STABILITY CRITERION OF THE SINK & SOURCE TERM
 = 0.1000E+31(WHEN MIN. R.F.=1)  AT K=   0, I=   0, J=   0

 MAXIMUM STEPSIZE WHICH MEETS STABILITY CRITERION OF THE DISPERSION TERM
 = 0.7276E-02(WHEN MIN. R.F.=1)  AT K=   3, I=   2, J=  30
     1 CALLS TO GCG PACKAGE FOR TRANSPORT TIME STEP   3 IN FLOW TIME STEP  71 STRESS PERIOD   2
    14 TOTAL ITERATIONS
 
 SOLVING FOR HEAD 
 FLOW MODEL IS TRANSIENT
 FLOW MODEL CONTAINS CONSTANT-HEAD CELLS


 MAXIMUM STEPSIZE DURING WHICH ANY PARTICLE CANNOT MOVE MORE THAN ONE CELL
 = 0.1698    (WHEN MIN. R.F.=1)  AT K=   3, I=   2, J=  30

 MAXIMUM STEPSIZE WHICH MEETS STABILITY CRITERION OF THE ADVECTION TERM
 (FOR PURE FINITE-DIFFERENCE OPTION, MIXELM=0) 
 = 0.1347    (WHEN MIN. R.F.=1)  AT K=   3, I=   2, J=  31


 TOTAL NUMBER OF POINT SOURCES/SINKS PRESENT IN THE FLOW MODEL =   240

 MAXIMUM STEPSIZE WHICH MEETS STABILITY CRITERION OF THE SINK & SOURCE TERM
 = 0.1000E+31(WHEN MIN. R.F.=1)  AT K=   0, I=   0, J=   0

 MAXIMUM STEPSIZE WHICH MEETS STABILITY CRITERION OF THE DISPERSION TERM
 = 0.7276E-02(WHEN MIN. R.F.=1)  AT K=   3, I=   2, J=  30
     1 CALLS TO GCG PACKAGE FOR TRANSPORT TIME STEP   4 IN FLOW TIME STEP  71 STRESS PERIOD   2
    13 TOTAL ITERATIONS
 
 SOLVING FOR HEAD 
 FLOW MODEL IS TRANSIENT
 FLOW MODEL CONTAINS CONSTANT-HEAD CELLS


 MAXIMUM STEPSIZE DURING WHICH ANY PARTICLE CANNOT MOVE MORE THAN ONE CELL
 = 0.1698    (WHEN MIN. R.F.=1)  AT K=   3, I=   2, J=  30

 MAXIMUM STEPSIZE WHICH MEETS STABILITY CRITERION OF THE ADVECTION TERM
 (FOR PURE FINITE-DIFFERENCE OPTION, MIXELM=0) 
 = 0.1347    (WHEN MIN. R.F.=1)  AT K=   3, I=   2, J=  31


 TOTAL NUMBER OF POINT SOURCES/SINKS PRESENT IN THE FLOW MODEL =   240

 MAXIMUM STEPSIZE WHICH MEETS STABILITY CRITERION OF THE SINK & SOURCE TERM
 = 0.1000E+31(WHEN MIN. R.F.=1)  AT K=   0, I=   0, J=   0

 MAXIMUM STEPSIZE WHICH MEETS STABILITY CRITERION OF THE DISPERSION TERM
 = 0.7276E-02(WHEN MIN. R.F.=1)  AT K=   3, I=   2, J=  30
     1 CALLS TO GCG PACKAGE FOR TRANSPORT TIME STEP   5 IN FLOW TIME STEP  71 STRESS PERIOD   2
    13 TOTAL ITERATIONS
 
 SOLVING FOR HEAD 
 FLOW MODEL IS TRANSIENT
 FLOW MODEL CONTAINS CONSTANT-HEAD CELLS


 MAXIMUM STEPSIZE DURING WHICH ANY PARTICLE CANNOT MOVE MORE THAN ONE CELL
 = 0.1698    (WHEN MIN. R.F.=1)  AT K=   3, I=   2, J=  30

 MAXIMUM STEPSIZE WHICH MEETS STABILITY CRITERION OF THE ADVECTION TERM
 (FOR PURE FINITE-DIFFERENCE OPTION, MIXELM=0) 
 = 0.1347    (WHEN MIN. R.F.=1)  AT K=   3, I=   2, J=  31


 TOTAL NUMBER OF POINT SOURCES/SINKS PRESENT IN THE FLOW MODEL =   240

 MAXIMUM STEPSIZE WHICH MEETS STABILITY CRITERION OF THE SINK & SOURCE TERM
 = 0.1000E+31(WHEN MIN. R.F.=1)  AT K=   0, I=   0, J=   0

 MAXIMUM STEPSIZE WHICH MEETS STABILITY CRITERION OF THE DISPERSION TERM
 = 0.7276E-02(WHEN MIN. R.F.=1)  AT K=   3, I=   2, J=  30
     1 CALLS TO GCG PACKAGE FOR TRANSPORT TIME STEP   6 IN FLOW TIME STEP  71 STRESS PERIOD   2
    14 TOTAL ITERATIONS
 
 SOLVING FOR HEAD 
 FLOW MODEL IS TRANSIENT
 FLOW MODEL CONTAINS CONSTANT-HEAD CELLS


 MAXIMUM STEPSIZE DURING WHICH ANY PARTICLE CANNOT MOVE MORE THAN ONE CELL
 = 0.1698    (WHEN MIN. R.F.=1)  AT K=   3, I=   2, J=  30

 MAXIMUM STEPSIZE WHICH MEETS STABILITY CRITERION OF THE ADVECTION TERM
 (FOR PURE FINITE-DIFFERENCE OPTION, MIXELM=0) 
 = 0.1347    (WHEN MIN. R.F.=1)  AT K=   3, I=   2, J=  31


 TOTAL NUMBER OF POINT SOURCES/SINKS PRESENT IN THE FLOW MODEL =   240

 MAXIMUM STEPSIZE WHICH MEETS STABILITY CRITERION OF THE SINK & SOURCE TERM
 = 0.1000E+31(WHEN MIN. R.F.=1)  AT K=   0, I=   0, J=   0

 MAXIMUM STEPSIZE WHICH MEETS STABILITY CRITERION OF THE DISPERSION TERM
 = 0.7276E-02(WHEN MIN. R.F.=1)  AT K=   3, I=   2, J=  30
     1 CALLS TO GCG PACKAGE FOR TRANSPORT TIME STEP   7 IN FLOW TIME STEP  71 STRESS PERIOD   2
    13 TOTAL ITERATIONS
 
 SOLVING FOR HEAD 
 FLOW MODEL IS TRANSIENT
 FLOW MODEL CONTAINS CONSTANT-HEAD CELLS


 MAXIMUM STEPSIZE DURING WHICH ANY PARTICLE CANNOT MOVE MORE THAN ONE CELL
 = 0.1698    (WHEN MIN. R.F.=1)  AT K=   3, I=   2, J=  30

 MAXIMUM STEPSIZE WHICH MEETS STABILITY CRITERION OF THE ADVECTION TERM
 (FOR PURE FINITE-DIFFERENCE OPTION, MIXELM=0) 
 = 0.1347    (WHEN MIN. R.F.=1)  AT K=   3, I=   2, J=  31


 TOTAL NUMBER OF POINT SOURCES/SINKS PRESENT IN THE FLOW MODEL =   240

 MAXIMUM STEPSIZE WHICH MEETS STABILITY CRITERION OF THE SINK & SOURCE TERM
 = 0.1000E+31(WHEN MIN. R.F.=1)  AT K=   0, I=   0, J=   0

 MAXIMUM STEPSIZE WHICH MEETS STABILITY CRITERION OF THE DISPERSION TERM
 = 0.7276E-02(WHEN MIN. R.F.=1)  AT K=   3, I=   2, J=  30
     1 CALLS TO GCG PACKAGE FOR TRANSPORT TIME STEP   8 IN FLOW TIME STEP  71 STRESS PERIOD   2
    12 TOTAL ITERATIONS
  MAXIMUM CONCENTRATION CHANGES FOR EACH ITERATION:
  MAX. CHANGE LAYER,ROW,COL MAX. CHANGE LAYER,ROW,COL MAX. CHANGE LAYER,ROW,COL MAX. CHANGE LAYER,ROW,COL MAX. CHANGE LAYER,ROW,COL
 ------------------------------------------------------------------------------------------------------------------------------------
   0.6598E-03 ( 13,  1, 61)  0.8481E-04 (  9,  1, 57)  0.2187E-04 (  5,  2, 62)  0.8235E-05 (  8,  1, 59)  0.2951E-05 (  4,  2, 53)
   0.1606E-05 (  7,  1, 59)  0.7229E-06 (  3,  3, 28)  0.4676E-06 (  4,  3, 28)  0.3366E-06 (  4,  3, 29)  0.2154E-06 (  3,  3, 29)
   0.1402E-06 (  3,  3, 30)  0.7982E-07 (  4,  3, 30)


                                          ================================================
                                                         FROM TIME =   72.000     TO    73.000    

 
 SOLVING FOR HEAD 
 FLOW MODEL IS TRANSIENT
 FLOW MODEL CONTAINS CONSTANT-HEAD CELLS


 MAXIMUM STEPSIZE DURING WHICH ANY PARTICLE CANNOT MOVE MORE THAN ONE CELL
 = 0.1698    (WHEN MIN. R.F.=1)  AT K=   3, I=   2, J=  30

 MAXIMUM STEPSIZE WHICH MEETS STABILITY CRITERION OF THE ADVECTION TERM
 (FOR PURE FINITE-DIFFERENCE OPTION, MIXELM=0) 
 = 0.1347    (WHEN MIN. R.F.=1)  AT K=   3, I=   2, J=  31


 TOTAL NUMBER OF POINT SOURCES/SINKS PRESENT IN THE FLOW MODEL =   240

 MAXIMUM STEPSIZE WHICH MEETS STABILITY CRITERION OF THE SINK & SOURCE TERM
 = 0.1000E+31(WHEN MIN. R.F.=1)  AT K=   0, I=   0, J=   0

 MAXIMUM STEPSIZE WHICH MEETS STABILITY CRITERION OF THE DISPERSION TERM
 = 0.7276E-02(WHEN MIN. R.F.=1)  AT K=   3, I=   2, J=  30


     1 CALLS TO GCG PACKAGE FOR TRANSPORT TIME STEP   1 IN FLOW TIME STEP  72 STRESS PERIOD   2
    13 TOTAL ITERATIONS

 NO OUTPUT CONTROL FOR STRESS PERIOD    2   TIME STEP  72
 
 SOLVING FOR HEAD 
 FLOW MODEL IS TRANSIENT
 FLOW MODEL CONTAINS CONSTANT-HEAD CELLS


 MAXIMUM STEPSIZE DURING WHICH ANY PARTICLE CANNOT MOVE MORE THAN ONE CELL
 = 0.1698    (WHEN MIN. R.F.=1)  AT K=   3, I=   2, J=  30

 MAXIMUM STEPSIZE WHICH MEETS STABILITY CRITERION OF THE ADVECTION TERM
 (FOR PURE FINITE-DIFFERENCE OPTION, MIXELM=0) 
 = 0.1347    (WHEN MIN. R.F.=1)  AT K=   3, I=   2, J=  31


 TOTAL NUMBER OF POINT SOURCES/SINKS PRESENT IN THE FLOW MODEL =   240

 MAXIMUM STEPSIZE WHICH MEETS STABILITY CRITERION OF THE SINK & SOURCE TERM
 = 0.1000E+31(WHEN MIN. R.F.=1)  AT K=   0, I=   0, J=   0

 MAXIMUM STEPSIZE WHICH MEETS STABILITY CRITERION OF THE DISPERSION TERM
 = 0.7276E-02(WHEN MIN. R.F.=1)  AT K=   3, I=   2, J=  30
     1 CALLS TO GCG PACKAGE FOR TRANSPORT TIME STEP   2 IN FLOW TIME STEP  72 STRESS PERIOD   2
    13 TOTAL ITERATIONS
 
 SOLVING FOR HEAD 
 FLOW MODEL IS TRANSIENT
 FLOW MODEL CONTAINS CONSTANT-HEAD CELLS


 MAXIMUM STEPSIZE DURING WHICH ANY PARTICLE CANNOT MOVE MORE THAN ONE CELL
 = 0.1698    (WHEN MIN. R.F.=1)  AT K=   3, I=   2, J=  30

 MAXIMUM STEPSIZE WHICH MEETS STABILITY CRITERION OF THE ADVECTION TERM
 (FOR PURE FINITE-DIFFERENCE OPTION, MIXELM=0) 
 = 0.1347    (WHEN MIN. R.F.=1)  AT K=   3, I=   2, J=  31


 TOTAL NUMBER OF POINT SOURCES/SINKS PRESENT IN THE FLOW MODEL =   240

 MAXIMUM STEPSIZE WHICH MEETS STABILITY CRITERION OF THE SINK & SOURCE TERM
 = 0.1000E+31(WHEN MIN. R.F.=1)  AT K=   0, I=   0, J=   0

 MAXIMUM STEPSIZE WHICH MEETS STABILITY CRITERION OF THE DISPERSION TERM
 = 0.7276E-02(WHEN MIN. R.F.=1)  AT K=   3, I=   2, J=  30
     1 CALLS TO GCG PACKAGE FOR TRANSPORT TIME STEP   3 IN FLOW TIME STEP  72 STRESS PERIOD   2
    13 TOTAL ITERATIONS
 
 SOLVING FOR HEAD 
 FLOW MODEL IS TRANSIENT
 FLOW MODEL CONTAINS CONSTANT-HEAD CELLS


 MAXIMUM STEPSIZE DURING WHICH ANY PARTICLE CANNOT MOVE MORE THAN ONE CELL
 = 0.1698    (WHEN MIN. R.F.=1)  AT K=   3, I=   2, J=  30

 MAXIMUM STEPSIZE WHICH MEETS STABILITY CRITERION OF THE ADVECTION TERM
 (FOR PURE FINITE-DIFFERENCE OPTION, MIXELM=0) 
 = 0.1347    (WHEN MIN. R.F.=1)  AT K=   3, I=   2, J=  31


 TOTAL NUMBER OF POINT SOURCES/SINKS PRESENT IN THE FLOW MODEL =   240

 MAXIMUM STEPSIZE WHICH MEETS STABILITY CRITERION OF THE SINK & SOURCE TERM
 = 0.1000E+31(WHEN MIN. R.F.=1)  AT K=   0, I=   0, J=   0

 MAXIMUM STEPSIZE WHICH MEETS STABILITY CRITERION OF THE DISPERSION TERM
 = 0.7276E-02(WHEN MIN. R.F.=1)  AT K=   3, I=   2, J=  30
     1 CALLS TO GCG PACKAGE FOR TRANSPORT TIME STEP   4 IN FLOW TIME STEP  72 STRESS PERIOD   2
    13 TOTAL ITERATIONS
 
 SOLVING FOR HEAD 
 FLOW MODEL IS TRANSIENT
 FLOW MODEL CONTAINS CONSTANT-HEAD CELLS


 MAXIMUM STEPSIZE DURING WHICH ANY PARTICLE CANNOT MOVE MORE THAN ONE CELL
 = 0.1698    (WHEN MIN. R.F.=1)  AT K=   3, I=   2, J=  30

 MAXIMUM STEPSIZE WHICH MEETS STABILITY CRITERION OF THE ADVECTION TERM
 (FOR PURE FINITE-DIFFERENCE OPTION, MIXELM=0) 
 = 0.1347    (WHEN MIN. R.F.=1)  AT K=   3, I=   2, J=  31


 TOTAL NUMBER OF POINT SOURCES/SINKS PRESENT IN THE FLOW MODEL =   240

 MAXIMUM STEPSIZE WHICH MEETS STABILITY CRITERION OF THE SINK & SOURCE TERM
 = 0.1000E+31(WHEN MIN. R.F.=1)  AT K=   0, I=   0, J=   0

 MAXIMUM STEPSIZE WHICH MEETS STABILITY CRITERION OF THE DISPERSION TERM
 = 0.7276E-02(WHEN MIN. R.F.=1)  AT K=   3, I=   2, J=  30
     1 CALLS TO GCG PACKAGE FOR TRANSPORT TIME STEP   5 IN FLOW TIME STEP  72 STRESS PERIOD   2
    13 TOTAL ITERATIONS
 
 SOLVING FOR HEAD 
 FLOW MODEL IS TRANSIENT
 FLOW MODEL CONTAINS CONSTANT-HEAD CELLS


 MAXIMUM STEPSIZE DURING WHICH ANY PARTICLE CANNOT MOVE MORE THAN ONE CELL
 = 0.1698    (WHEN MIN. R.F.=1)  AT K=   3, I=   2, J=  30

 MAXIMUM STEPSIZE WHICH MEETS STABILITY CRITERION OF THE ADVECTION TERM
 (FOR PURE FINITE-DIFFERENCE OPTION, MIXELM=0) 
 = 0.1347    (WHEN MIN. R.F.=1)  AT K=   3, I=   2, J=  31


 TOTAL NUMBER OF POINT SOURCES/SINKS PRESENT IN THE FLOW MODEL =   240

 MAXIMUM STEPSIZE WHICH MEETS STABILITY CRITERION OF THE SINK & SOURCE TERM
 = 0.1000E+31(WHEN MIN. R.F.=1)  AT K=   0, I=   0, J=   0

 MAXIMUM STEPSIZE WHICH MEETS STABILITY CRITERION OF THE DISPERSION TERM
 = 0.7275E-02(WHEN MIN. R.F.=1)  AT K=   3, I=   2, J=  30
     1 CALLS TO GCG PACKAGE FOR TRANSPORT TIME STEP   6 IN FLOW TIME STEP  72 STRESS PERIOD   2
    13 TOTAL ITERATIONS
 
 SOLVING FOR HEAD 
 FLOW MODEL IS TRANSIENT
 FLOW MODEL CONTAINS CONSTANT-HEAD CELLS


 MAXIMUM STEPSIZE DURING WHICH ANY PARTICLE CANNOT MOVE MORE THAN ONE CELL
 = 0.1698    (WHEN MIN. R.F.=1)  AT K=   3, I=   2, J=  30

 MAXIMUM STEPSIZE WHICH MEETS STABILITY CRITERION OF THE ADVECTION TERM
 (FOR PURE FINITE-DIFFERENCE OPTION, MIXELM=0) 
 = 0.1347    (WHEN MIN. R.F.=1)  AT K=   3, I=   2, J=  31


 TOTAL NUMBER OF POINT SOURCES/SINKS PRESENT IN THE FLOW MODEL =   240

 MAXIMUM STEPSIZE WHICH MEETS STABILITY CRITERION OF THE SINK & SOURCE TERM
 = 0.1000E+31(WHEN MIN. R.F.=1)  AT K=   0, I=   0, J=   0

 MAXIMUM STEPSIZE WHICH MEETS STABILITY CRITERION OF THE DISPERSION TERM
 = 0.7275E-02(WHEN MIN. R.F.=1)  AT K=   3, I=   2, J=  30
     1 CALLS TO GCG PACKAGE FOR TRANSPORT TIME STEP   7 IN FLOW TIME STEP  72 STRESS PERIOD   2
    13 TOTAL ITERATIONS
 
 SOLVING FOR HEAD 
 FLOW MODEL IS TRANSIENT
 FLOW MODEL CONTAINS CONSTANT-HEAD CELLS


 MAXIMUM STEPSIZE DURING WHICH ANY PARTICLE CANNOT MOVE MORE THAN ONE CELL
 = 0.1698    (WHEN MIN. R.F.=1)  AT K=   3, I=   2, J=  30

 MAXIMUM STEPSIZE WHICH MEETS STABILITY CRITERION OF THE ADVECTION TERM
 (FOR PURE FINITE-DIFFERENCE OPTION, MIXELM=0) 
 = 0.1347    (WHEN MIN. R.F.=1)  AT K=   3, I=   2, J=  31


 TOTAL NUMBER OF POINT SOURCES/SINKS PRESENT IN THE FLOW MODEL =   240

 MAXIMUM STEPSIZE WHICH MEETS STABILITY CRITERION OF THE SINK & SOURCE TERM
 = 0.1000E+31(WHEN MIN. R.F.=1)  AT K=   0, I=   0, J=   0

 MAXIMUM STEPSIZE WHICH MEETS STABILITY CRITERION OF THE DISPERSION TERM
 = 0.7275E-02(WHEN MIN. R.F.=1)  AT K=   3, I=   2, J=  30
     1 CALLS TO GCG PACKAGE FOR TRANSPORT TIME STEP   8 IN FLOW TIME STEP  72 STRESS PERIOD   2
    12 TOTAL ITERATIONS
  MAXIMUM CONCENTRATION CHANGES FOR EACH ITERATION:
  MAX. CHANGE LAYER,ROW,COL MAX. CHANGE LAYER,ROW,COL MAX. CHANGE LAYER,ROW,COL MAX. CHANGE LAYER,ROW,COL MAX. CHANGE LAYER,ROW,COL
 ------------------------------------------------------------------------------------------------------------------------------------
   0.6461E-03 ( 13,  1, 61)  0.8244E-04 (  9,  1, 57)  0.2126E-04 (  5,  2, 62)  0.7969E-05 (  8,  1, 59)  0.2846E-05 (  4,  2, 53)
   0.1560E-05 (  7,  1, 59)  0.7658E-06 (  3,  2, 28)  0.5047E-06 (  3,  2, 29)  0.3582E-06 (  4,  2, 29)  0.2287E-06 (  3,  2, 29)
   0.1509E-06 (  3,  2, 30)  0.8562E-07 (  4,  2, 30)


                                          ================================================
                                                         FROM TIME =   73.000     TO    74.000    

 
 SOLVING FOR HEAD 
 FLOW MODEL IS TRANSIENT
 FLOW MODEL CONTAINS CONSTANT-HEAD CELLS


 MAXIMUM STEPSIZE DURING WHICH ANY PARTICLE CANNOT MOVE MORE THAN ONE CELL
 = 0.1698    (WHEN MIN. R.F.=1)  AT K=   3, I=   2, J=  30

 MAXIMUM STEPSIZE WHICH MEETS STABILITY CRITERION OF THE ADVECTION TERM
 (FOR PURE FINITE-DIFFERENCE OPTION, MIXELM=0) 
 = 0.1347    (WHEN MIN. R.F.=1)  AT K=   3, I=   2, J=  31


 TOTAL NUMBER OF POINT SOURCES/SINKS PRESENT IN THE FLOW MODEL =   240

 MAXIMUM STEPSIZE WHICH MEETS STABILITY CRITERION OF THE SINK & SOURCE TERM
 = 0.1000E+31(WHEN MIN. R.F.=1)  AT K=   0, I=   0, J=   0

 MAXIMUM STEPSIZE WHICH MEETS STABILITY CRITERION OF THE DISPERSION TERM
 = 0.7275E-02(WHEN MIN. R.F.=1)  AT K=   3, I=   2, J=  30


     1 CALLS TO GCG PACKAGE FOR TRANSPORT TIME STEP   1 IN FLOW TIME STEP  73 STRESS PERIOD   2
    13 TOTAL ITERATIONS

 NO OUTPUT CONTROL FOR STRESS PERIOD    2   TIME STEP  73
 
 SOLVING FOR HEAD 
 FLOW MODEL IS TRANSIENT
 FLOW MODEL CONTAINS CONSTANT-HEAD CELLS


 MAXIMUM STEPSIZE DURING WHICH ANY PARTICLE CANNOT MOVE MORE THAN ONE CELL
 = 0.1698    (WHEN MIN. R.F.=1)  AT K=   3, I=   2, J=  30

 MAXIMUM STEPSIZE WHICH MEETS STABILITY CRITERION OF THE ADVECTION TERM
 (FOR PURE FINITE-DIFFERENCE OPTION, MIXELM=0) 
 = 0.1347    (WHEN MIN. R.F.=1)  AT K=   3, I=   2, J=  31


 TOTAL NUMBER OF POINT SOURCES/SINKS PRESENT IN THE FLOW MODEL =   240

 MAXIMUM STEPSIZE WHICH MEETS STABILITY CRITERION OF THE SINK & SOURCE TERM
 = 0.1000E+31(WHEN MIN. R.F.=1)  AT K=   0, I=   0, J=   0

 MAXIMUM STEPSIZE WHICH MEETS STABILITY CRITERION OF THE DISPERSION TERM
 = 0.7275E-02(WHEN MIN. R.F.=1)  AT K=   3, I=   2, J=  30
     1 CALLS TO GCG PACKAGE FOR TRANSPORT TIME STEP   2 IN FLOW TIME STEP  73 STRESS PERIOD   2
    13 TOTAL ITERATIONS
 
 SOLVING FOR HEAD 
 FLOW MODEL IS TRANSIENT
 FLOW MODEL CONTAINS CONSTANT-HEAD CELLS


 MAXIMUM STEPSIZE DURING WHICH ANY PARTICLE CANNOT MOVE MORE THAN ONE CELL
 = 0.1698    (WHEN MIN. R.F.=1)  AT K=   3, I=   2, J=  30

 MAXIMUM STEPSIZE WHICH MEETS STABILITY CRITERION OF THE ADVECTION TERM
 (FOR PURE FINITE-DIFFERENCE OPTION, MIXELM=0) 
 = 0.1347    (WHEN MIN. R.F.=1)  AT K=   3, I=   2, J=  31


 TOTAL NUMBER OF POINT SOURCES/SINKS PRESENT IN THE FLOW MODEL =   240

 MAXIMUM STEPSIZE WHICH MEETS STABILITY CRITERION OF THE SINK & SOURCE TERM
 = 0.1000E+31(WHEN MIN. R.F.=1)  AT K=   0, I=   0, J=   0

 MAXIMUM STEPSIZE WHICH MEETS STABILITY CRITERION OF THE DISPERSION TERM
 = 0.7275E-02(WHEN MIN. R.F.=1)  AT K=   3, I=   2, J=  30
     1 CALLS TO GCG PACKAGE FOR TRANSPORT TIME STEP   3 IN FLOW TIME STEP  73 STRESS PERIOD   2
    13 TOTAL ITERATIONS
 
 SOLVING FOR HEAD 
 FLOW MODEL IS TRANSIENT
 FLOW MODEL CONTAINS CONSTANT-HEAD CELLS


 MAXIMUM STEPSIZE DURING WHICH ANY PARTICLE CANNOT MOVE MORE THAN ONE CELL
 = 0.1698    (WHEN MIN. R.F.=1)  AT K=   3, I=   2, J=  30

 MAXIMUM STEPSIZE WHICH MEETS STABILITY CRITERION OF THE ADVECTION TERM
 (FOR PURE FINITE-DIFFERENCE OPTION, MIXELM=0) 
 = 0.1347    (WHEN MIN. R.F.=1)  AT K=   3, I=   2, J=  31


 TOTAL NUMBER OF POINT SOURCES/SINKS PRESENT IN THE FLOW MODEL =   240

 MAXIMUM STEPSIZE WHICH MEETS STABILITY CRITERION OF THE SINK & SOURCE TERM
 = 0.1000E+31(WHEN MIN. R.F.=1)  AT K=   0, I=   0, J=   0

 MAXIMUM STEPSIZE WHICH MEETS STABILITY CRITERION OF THE DISPERSION TERM
 = 0.7275E-02(WHEN MIN. R.F.=1)  AT K=   3, I=   2, J=  30
     1 CALLS TO GCG PACKAGE FOR TRANSPORT TIME STEP   4 IN FLOW TIME STEP  73 STRESS PERIOD   2
    13 TOTAL ITERATIONS
 
 SOLVING FOR HEAD 
 FLOW MODEL IS TRANSIENT
 FLOW MODEL CONTAINS CONSTANT-HEAD CELLS


 MAXIMUM STEPSIZE DURING WHICH ANY PARTICLE CANNOT MOVE MORE THAN ONE CELL
 = 0.1698    (WHEN MIN. R.F.=1)  AT K=   3, I=   2, J=  30

 MAXIMUM STEPSIZE WHICH MEETS STABILITY CRITERION OF THE ADVECTION TERM
 (FOR PURE FINITE-DIFFERENCE OPTION, MIXELM=0) 
 = 0.1347    (WHEN MIN. R.F.=1)  AT K=   3, I=   2, J=  31


 TOTAL NUMBER OF POINT SOURCES/SINKS PRESENT IN THE FLOW MODEL =   240

 MAXIMUM STEPSIZE WHICH MEETS STABILITY CRITERION OF THE SINK & SOURCE TERM
 = 0.1000E+31(WHEN MIN. R.F.=1)  AT K=   0, I=   0, J=   0

 MAXIMUM STEPSIZE WHICH MEETS STABILITY CRITERION OF THE DISPERSION TERM
 = 0.7275E-02(WHEN MIN. R.F.=1)  AT K=   3, I=   2, J=  30
     1 CALLS TO GCG PACKAGE FOR TRANSPORT TIME STEP   5 IN FLOW TIME STEP  73 STRESS PERIOD   2
    13 TOTAL ITERATIONS
 
 SOLVING FOR HEAD 
 FLOW MODEL IS TRANSIENT
 FLOW MODEL CONTAINS CONSTANT-HEAD CELLS


 MAXIMUM STEPSIZE DURING WHICH ANY PARTICLE CANNOT MOVE MORE THAN ONE CELL
 = 0.1698    (WHEN MIN. R.F.=1)  AT K=   3, I=   2, J=  30

 MAXIMUM STEPSIZE WHICH MEETS STABILITY CRITERION OF THE ADVECTION TERM
 (FOR PURE FINITE-DIFFERENCE OPTION, MIXELM=0) 
 = 0.1347    (WHEN MIN. R.F.=1)  AT K=   3, I=   2, J=  31


 TOTAL NUMBER OF POINT SOURCES/SINKS PRESENT IN THE FLOW MODEL =   240

 MAXIMUM STEPSIZE WHICH MEETS STABILITY CRITERION OF THE SINK & SOURCE TERM
 = 0.1000E+31(WHEN MIN. R.F.=1)  AT K=   0, I=   0, J=   0

 MAXIMUM STEPSIZE WHICH MEETS STABILITY CRITERION OF THE DISPERSION TERM
 = 0.7275E-02(WHEN MIN. R.F.=1)  AT K=   3, I=   2, J=  30
     1 CALLS TO GCG PACKAGE FOR TRANSPORT TIME STEP   6 IN FLOW TIME STEP  73 STRESS PERIOD   2
    13 TOTAL ITERATIONS
 
 SOLVING FOR HEAD 
 FLOW MODEL IS TRANSIENT
 FLOW MODEL CONTAINS CONSTANT-HEAD CELLS


 MAXIMUM STEPSIZE DURING WHICH ANY PARTICLE CANNOT MOVE MORE THAN ONE CELL
 = 0.1698    (WHEN MIN. R.F.=1)  AT K=   3, I=   2, J=  30

 MAXIMUM STEPSIZE WHICH MEETS STABILITY CRITERION OF THE ADVECTION TERM
 (FOR PURE FINITE-DIFFERENCE OPTION, MIXELM=0) 
 = 0.1347    (WHEN MIN. R.F.=1)  AT K=   3, I=   2, J=  31


 TOTAL NUMBER OF POINT SOURCES/SINKS PRESENT IN THE FLOW MODEL =   240

 MAXIMUM STEPSIZE WHICH MEETS STABILITY CRITERION OF THE SINK & SOURCE TERM
 = 0.1000E+31(WHEN MIN. R.F.=1)  AT K=   0, I=   0, J=   0

 MAXIMUM STEPSIZE WHICH MEETS STABILITY CRITERION OF THE DISPERSION TERM
 = 0.7275E-02(WHEN MIN. R.F.=1)  AT K=   3, I=   2, J=  30
     1 CALLS TO GCG PACKAGE FOR TRANSPORT TIME STEP   7 IN FLOW TIME STEP  73 STRESS PERIOD   2
    13 TOTAL ITERATIONS
 
 SOLVING FOR HEAD 
 FLOW MODEL IS TRANSIENT
 FLOW MODEL CONTAINS CONSTANT-HEAD CELLS


 MAXIMUM STEPSIZE DURING WHICH ANY PARTICLE CANNOT MOVE MORE THAN ONE CELL
 = 0.1698    (WHEN MIN. R.F.=1)  AT K=   3, I=   2, J=  30

 MAXIMUM STEPSIZE WHICH MEETS STABILITY CRITERION OF THE ADVECTION TERM
 (FOR PURE FINITE-DIFFERENCE OPTION, MIXELM=0) 
 = 0.1347    (WHEN MIN. R.F.=1)  AT K=   3, I=   2, J=  31


 TOTAL NUMBER OF POINT SOURCES/SINKS PRESENT IN THE FLOW MODEL =   240

 MAXIMUM STEPSIZE WHICH MEETS STABILITY CRITERION OF THE SINK & SOURCE TERM
 = 0.1000E+31(WHEN MIN. R.F.=1)  AT K=   0, I=   0, J=   0

 MAXIMUM STEPSIZE WHICH MEETS STABILITY CRITERION OF THE DISPERSION TERM
 = 0.7275E-02(WHEN MIN. R.F.=1)  AT K=   3, I=   2, J=  30
     1 CALLS TO GCG PACKAGE FOR TRANSPORT TIME STEP   8 IN FLOW TIME STEP  73 STRESS PERIOD   2
    12 TOTAL ITERATIONS
  MAXIMUM CONCENTRATION CHANGES FOR EACH ITERATION:
  MAX. CHANGE LAYER,ROW,COL MAX. CHANGE LAYER,ROW,COL MAX. CHANGE LAYER,ROW,COL MAX. CHANGE LAYER,ROW,COL MAX. CHANGE LAYER,ROW,COL
 ------------------------------------------------------------------------------------------------------------------------------------
   0.6329E-03 ( 13,  1, 62)  0.8015E-04 (  9,  1, 57)  0.2067E-04 (  5,  2, 62)  0.7713E-05 (  8,  1, 59)  0.2744E-05 (  4,  2, 53)
   0.1504E-05 (  7,  1, 59)  0.6131E-06 (  3,  3, 28)  0.4056E-06 (  7,  1, 59)  0.2776E-06 (  4,  3, 29)  0.1798E-06 (  3,  3, 29)
   0.1195E-06 (  3,  2, 27)  0.7153E-07 (  3,  2, 28)


                                          ================================================
                                                         FROM TIME =   74.000     TO    75.000    

 
 SOLVING FOR HEAD 
 FLOW MODEL IS TRANSIENT
 FLOW MODEL CONTAINS CONSTANT-HEAD CELLS


 MAXIMUM STEPSIZE DURING WHICH ANY PARTICLE CANNOT MOVE MORE THAN ONE CELL
 = 0.1698    (WHEN MIN. R.F.=1)  AT K=   3, I=   2, J=  30

 MAXIMUM STEPSIZE WHICH MEETS STABILITY CRITERION OF THE ADVECTION TERM
 (FOR PURE FINITE-DIFFERENCE OPTION, MIXELM=0) 
 = 0.1347    (WHEN MIN. R.F.=1)  AT K=   3, I=   2, J=  31


 TOTAL NUMBER OF POINT SOURCES/SINKS PRESENT IN THE FLOW MODEL =   240

 MAXIMUM STEPSIZE WHICH MEETS STABILITY CRITERION OF THE SINK & SOURCE TERM
 = 0.1000E+31(WHEN MIN. R.F.=1)  AT K=   0, I=   0, J=   0

 MAXIMUM STEPSIZE WHICH MEETS STABILITY CRITERION OF THE DISPERSION TERM
 = 0.7275E-02(WHEN MIN. R.F.=1)  AT K=   3, I=   2, J=  30


     1 CALLS TO GCG PACKAGE FOR TRANSPORT TIME STEP   1 IN FLOW TIME STEP  74 STRESS PERIOD   2
    13 TOTAL ITERATIONS

 NO OUTPUT CONTROL FOR STRESS PERIOD    2   TIME STEP  74
 
 SOLVING FOR HEAD 
 FLOW MODEL IS TRANSIENT
 FLOW MODEL CONTAINS CONSTANT-HEAD CELLS


 MAXIMUM STEPSIZE DURING WHICH ANY PARTICLE CANNOT MOVE MORE THAN ONE CELL
 = 0.1698    (WHEN MIN. R.F.=1)  AT K=   3, I=   2, J=  30

 MAXIMUM STEPSIZE WHICH MEETS STABILITY CRITERION OF THE ADVECTION TERM
 (FOR PURE FINITE-DIFFERENCE OPTION, MIXELM=0) 
 = 0.1347    (WHEN MIN. R.F.=1)  AT K=   3, I=   2, J=  31


 TOTAL NUMBER OF POINT SOURCES/SINKS PRESENT IN THE FLOW MODEL =   240

 MAXIMUM STEPSIZE WHICH MEETS STABILITY CRITERION OF THE SINK & SOURCE TERM
 = 0.1000E+31(WHEN MIN. R.F.=1)  AT K=   0, I=   0, J=   0

 MAXIMUM STEPSIZE WHICH MEETS STABILITY CRITERION OF THE DISPERSION TERM
 = 0.7275E-02(WHEN MIN. R.F.=1)  AT K=   3, I=   2, J=  30
     1 CALLS TO GCG PACKAGE FOR TRANSPORT TIME STEP   2 IN FLOW TIME STEP  74 STRESS PERIOD   2
    13 TOTAL ITERATIONS
 
 SOLVING FOR HEAD 
 FLOW MODEL IS TRANSIENT
 FLOW MODEL CONTAINS CONSTANT-HEAD CELLS


 MAXIMUM STEPSIZE DURING WHICH ANY PARTICLE CANNOT MOVE MORE THAN ONE CELL
 = 0.1698    (WHEN MIN. R.F.=1)  AT K=   3, I=   2, J=  30

 MAXIMUM STEPSIZE WHICH MEETS STABILITY CRITERION OF THE ADVECTION TERM
 (FOR PURE FINITE-DIFFERENCE OPTION, MIXELM=0) 
 = 0.1347    (WHEN MIN. R.F.=1)  AT K=   3, I=   2, J=  31


 TOTAL NUMBER OF POINT SOURCES/SINKS PRESENT IN THE FLOW MODEL =   240

 MAXIMUM STEPSIZE WHICH MEETS STABILITY CRITERION OF THE SINK & SOURCE TERM
 = 0.1000E+31(WHEN MIN. R.F.=1)  AT K=   0, I=   0, J=   0

 MAXIMUM STEPSIZE WHICH MEETS STABILITY CRITERION OF THE DISPERSION TERM
 = 0.7275E-02(WHEN MIN. R.F.=1)  AT K=   3, I=   2, J=  30
     1 CALLS TO GCG PACKAGE FOR TRANSPORT TIME STEP   3 IN FLOW TIME STEP  74 STRESS PERIOD   2
    13 TOTAL ITERATIONS
 
 SOLVING FOR HEAD 
 FLOW MODEL IS TRANSIENT
 FLOW MODEL CONTAINS CONSTANT-HEAD CELLS


 MAXIMUM STEPSIZE DURING WHICH ANY PARTICLE CANNOT MOVE MORE THAN ONE CELL
 = 0.1698    (WHEN MIN. R.F.=1)  AT K=   3, I=   2, J=  30

 MAXIMUM STEPSIZE WHICH MEETS STABILITY CRITERION OF THE ADVECTION TERM
 (FOR PURE FINITE-DIFFERENCE OPTION, MIXELM=0) 
 = 0.1347    (WHEN MIN. R.F.=1)  AT K=   3, I=   2, J=  31


 TOTAL NUMBER OF POINT SOURCES/SINKS PRESENT IN THE FLOW MODEL =   240

 MAXIMUM STEPSIZE WHICH MEETS STABILITY CRITERION OF THE SINK & SOURCE TERM
 = 0.1000E+31(WHEN MIN. R.F.=1)  AT K=   0, I=   0, J=   0

 MAXIMUM STEPSIZE WHICH MEETS STABILITY CRITERION OF THE DISPERSION TERM
 = 0.7275E-02(WHEN MIN. R.F.=1)  AT K=   3, I=   2, J=  30
     1 CALLS TO GCG PACKAGE FOR TRANSPORT TIME STEP   4 IN FLOW TIME STEP  74 STRESS PERIOD   2
    13 TOTAL ITERATIONS
 
 SOLVING FOR HEAD 
 FLOW MODEL IS TRANSIENT
 FLOW MODEL CONTAINS CONSTANT-HEAD CELLS


 MAXIMUM STEPSIZE DURING WHICH ANY PARTICLE CANNOT MOVE MORE THAN ONE CELL
 = 0.1698    (WHEN MIN. R.F.=1)  AT K=   3, I=   2, J=  30

 MAXIMUM STEPSIZE WHICH MEETS STABILITY CRITERION OF THE ADVECTION TERM
 (FOR PURE FINITE-DIFFERENCE OPTION, MIXELM=0) 
 = 0.1347    (WHEN MIN. R.F.=1)  AT K=   3, I=   2, J=  31


 TOTAL NUMBER OF POINT SOURCES/SINKS PRESENT IN THE FLOW MODEL =   240

 MAXIMUM STEPSIZE WHICH MEETS STABILITY CRITERION OF THE SINK & SOURCE TERM
 = 0.1000E+31(WHEN MIN. R.F.=1)  AT K=   0, I=   0, J=   0

 MAXIMUM STEPSIZE WHICH MEETS STABILITY CRITERION OF THE DISPERSION TERM
 = 0.7275E-02(WHEN MIN. R.F.=1)  AT K=   3, I=   2, J=  30
     1 CALLS TO GCG PACKAGE FOR TRANSPORT TIME STEP   5 IN FLOW TIME STEP  74 STRESS PERIOD   2
    13 TOTAL ITERATIONS
 
 SOLVING FOR HEAD 
 FLOW MODEL IS TRANSIENT
 FLOW MODEL CONTAINS CONSTANT-HEAD CELLS


 MAXIMUM STEPSIZE DURING WHICH ANY PARTICLE CANNOT MOVE MORE THAN ONE CELL
 = 0.1698    (WHEN MIN. R.F.=1)  AT K=   3, I=   2, J=  30

 MAXIMUM STEPSIZE WHICH MEETS STABILITY CRITERION OF THE ADVECTION TERM
 (FOR PURE FINITE-DIFFERENCE OPTION, MIXELM=0) 
 = 0.1347    (WHEN MIN. R.F.=1)  AT K=   3, I=   2, J=  31


 TOTAL NUMBER OF POINT SOURCES/SINKS PRESENT IN THE FLOW MODEL =   240

 MAXIMUM STEPSIZE WHICH MEETS STABILITY CRITERION OF THE SINK & SOURCE TERM
 = 0.1000E+31(WHEN MIN. R.F.=1)  AT K=   0, I=   0, J=   0

 MAXIMUM STEPSIZE WHICH MEETS STABILITY CRITERION OF THE DISPERSION TERM
 = 0.7275E-02(WHEN MIN. R.F.=1)  AT K=   3, I=   2, J=  30
     1 CALLS TO GCG PACKAGE FOR TRANSPORT TIME STEP   6 IN FLOW TIME STEP  74 STRESS PERIOD   2
    13 TOTAL ITERATIONS
 
 SOLVING FOR HEAD 
 FLOW MODEL IS TRANSIENT
 FLOW MODEL CONTAINS CONSTANT-HEAD CELLS


 MAXIMUM STEPSIZE DURING WHICH ANY PARTICLE CANNOT MOVE MORE THAN ONE CELL
 = 0.1698    (WHEN MIN. R.F.=1)  AT K=   3, I=   2, J=  30

 MAXIMUM STEPSIZE WHICH MEETS STABILITY CRITERION OF THE ADVECTION TERM
 (FOR PURE FINITE-DIFFERENCE OPTION, MIXELM=0) 
 = 0.1347    (WHEN MIN. R.F.=1)  AT K=   3, I=   2, J=  31


 TOTAL NUMBER OF POINT SOURCES/SINKS PRESENT IN THE FLOW MODEL =   240

 MAXIMUM STEPSIZE WHICH MEETS STABILITY CRITERION OF THE SINK & SOURCE TERM
 = 0.1000E+31(WHEN MIN. R.F.=1)  AT K=   0, I=   0, J=   0

 MAXIMUM STEPSIZE WHICH MEETS STABILITY CRITERION OF THE DISPERSION TERM
 = 0.7275E-02(WHEN MIN. R.F.=1)  AT K=   3, I=   2, J=  30
     1 CALLS TO GCG PACKAGE FOR TRANSPORT TIME STEP   7 IN FLOW TIME STEP  74 STRESS PERIOD   2
    13 TOTAL ITERATIONS
 
 SOLVING FOR HEAD 
 FLOW MODEL IS TRANSIENT
 FLOW MODEL CONTAINS CONSTANT-HEAD CELLS


 MAXIMUM STEPSIZE DURING WHICH ANY PARTICLE CANNOT MOVE MORE THAN ONE CELL
 = 0.1698    (WHEN MIN. R.F.=1)  AT K=   3, I=   2, J=  30

 MAXIMUM STEPSIZE WHICH MEETS STABILITY CRITERION OF THE ADVECTION TERM
 (FOR PURE FINITE-DIFFERENCE OPTION, MIXELM=0) 
 = 0.1347    (WHEN MIN. R.F.=1)  AT K=   3, I=   2, J=  31


 TOTAL NUMBER OF POINT SOURCES/SINKS PRESENT IN THE FLOW MODEL =   240

 MAXIMUM STEPSIZE WHICH MEETS STABILITY CRITERION OF THE SINK & SOURCE TERM
 = 0.1000E+31(WHEN MIN. R.F.=1)  AT K=   0, I=   0, J=   0

 MAXIMUM STEPSIZE WHICH MEETS STABILITY CRITERION OF THE DISPERSION TERM
 = 0.7275E-02(WHEN MIN. R.F.=1)  AT K=   3, I=   2, J=  30
     1 CALLS TO GCG PACKAGE FOR TRANSPORT TIME STEP   8 IN FLOW TIME STEP  74 STRESS PERIOD   2
    12 TOTAL ITERATIONS
  MAXIMUM CONCENTRATION CHANGES FOR EACH ITERATION:
  MAX. CHANGE LAYER,ROW,COL MAX. CHANGE LAYER,ROW,COL MAX. CHANGE LAYER,ROW,COL MAX. CHANGE LAYER,ROW,COL MAX. CHANGE LAYER,ROW,COL
 ------------------------------------------------------------------------------------------------------------------------------------
   0.6227E-03 ( 13,  1, 62)  0.7793E-04 (  9,  1, 57)  0.2010E-04 (  5,  2, 62)  0.7475E-05 (  5,  2, 59)  0.2647E-05 (  4,  2, 53)
   0.1459E-05 (  7,  1, 59)  0.6580E-06 (  3,  2, 28)  0.4330E-06 (  4,  2, 28)  0.3031E-06 (  4,  2, 29)  0.1972E-06 (  3,  2, 29)
   0.1320E-06 (  3,  2, 30)  0.7631E-07 (  4,  2, 30)


                                          ================================================
                                                         FROM TIME =   75.000     TO    76.000    

 
 SOLVING FOR HEAD 
 FLOW MODEL IS TRANSIENT
 FLOW MODEL CONTAINS CONSTANT-HEAD CELLS


 MAXIMUM STEPSIZE DURING WHICH ANY PARTICLE CANNOT MOVE MORE THAN ONE CELL
 = 0.1698    (WHEN MIN. R.F.=1)  AT K=   3, I=   2, J=  30

 MAXIMUM STEPSIZE WHICH MEETS STABILITY CRITERION OF THE ADVECTION TERM
 (FOR PURE FINITE-DIFFERENCE OPTION, MIXELM=0) 
 = 0.1347    (WHEN MIN. R.F.=1)  AT K=   3, I=   2, J=  31


 TOTAL NUMBER OF POINT SOURCES/SINKS PRESENT IN THE FLOW MODEL =   240

 MAXIMUM STEPSIZE WHICH MEETS STABILITY CRITERION OF THE SINK & SOURCE TERM
 = 0.1000E+31(WHEN MIN. R.F.=1)  AT K=   0, I=   0, J=   0

 MAXIMUM STEPSIZE WHICH MEETS STABILITY CRITERION OF THE DISPERSION TERM
 = 0.7275E-02(WHEN MIN. R.F.=1)  AT K=   3, I=   2, J=  30


     1 CALLS TO GCG PACKAGE FOR TRANSPORT TIME STEP   1 IN FLOW TIME STEP  75 STRESS PERIOD   2
    13 TOTAL ITERATIONS

 NO OUTPUT CONTROL FOR STRESS PERIOD    2   TIME STEP  75
 
 SOLVING FOR HEAD 
 FLOW MODEL IS TRANSIENT
 FLOW MODEL CONTAINS CONSTANT-HEAD CELLS


 MAXIMUM STEPSIZE DURING WHICH ANY PARTICLE CANNOT MOVE MORE THAN ONE CELL
 = 0.1698    (WHEN MIN. R.F.=1)  AT K=   3, I=   2, J=  30

 MAXIMUM STEPSIZE WHICH MEETS STABILITY CRITERION OF THE ADVECTION TERM
 (FOR PURE FINITE-DIFFERENCE OPTION, MIXELM=0) 
 = 0.1347    (WHEN MIN. R.F.=1)  AT K=   3, I=   2, J=  31


 TOTAL NUMBER OF POINT SOURCES/SINKS PRESENT IN THE FLOW MODEL =   240

 MAXIMUM STEPSIZE WHICH MEETS STABILITY CRITERION OF THE SINK & SOURCE TERM
 = 0.1000E+31(WHEN MIN. R.F.=1)  AT K=   0, I=   0, J=   0

 MAXIMUM STEPSIZE WHICH MEETS STABILITY CRITERION OF THE DISPERSION TERM
 = 0.7275E-02(WHEN MIN. R.F.=1)  AT K=   3, I=   2, J=  30
     1 CALLS TO GCG PACKAGE FOR TRANSPORT TIME STEP   2 IN FLOW TIME STEP  75 STRESS PERIOD   2
    13 TOTAL ITERATIONS
 
 SOLVING FOR HEAD 
 FLOW MODEL IS TRANSIENT
 FLOW MODEL CONTAINS CONSTANT-HEAD CELLS


 MAXIMUM STEPSIZE DURING WHICH ANY PARTICLE CANNOT MOVE MORE THAN ONE CELL
 = 0.1698    (WHEN MIN. R.F.=1)  AT K=   3, I=   2, J=  30

 MAXIMUM STEPSIZE WHICH MEETS STABILITY CRITERION OF THE ADVECTION TERM
 (FOR PURE FINITE-DIFFERENCE OPTION, MIXELM=0) 
 = 0.1347    (WHEN MIN. R.F.=1)  AT K=   3, I=   2, J=  31


 TOTAL NUMBER OF POINT SOURCES/SINKS PRESENT IN THE FLOW MODEL =   240

 MAXIMUM STEPSIZE WHICH MEETS STABILITY CRITERION OF THE SINK & SOURCE TERM
 = 0.1000E+31(WHEN MIN. R.F.=1)  AT K=   0, I=   0, J=   0

 MAXIMUM STEPSIZE WHICH MEETS STABILITY CRITERION OF THE DISPERSION TERM
 = 0.7275E-02(WHEN MIN. R.F.=1)  AT K=   3, I=   2, J=  30
     1 CALLS TO GCG PACKAGE FOR TRANSPORT TIME STEP   3 IN FLOW TIME STEP  75 STRESS PERIOD   2
    13 TOTAL ITERATIONS
 
 SOLVING FOR HEAD 
 FLOW MODEL IS TRANSIENT
 FLOW MODEL CONTAINS CONSTANT-HEAD CELLS


 MAXIMUM STEPSIZE DURING WHICH ANY PARTICLE CANNOT MOVE MORE THAN ONE CELL
 = 0.1698    (WHEN MIN. R.F.=1)  AT K=   3, I=   2, J=  30

 MAXIMUM STEPSIZE WHICH MEETS STABILITY CRITERION OF THE ADVECTION TERM
 (FOR PURE FINITE-DIFFERENCE OPTION, MIXELM=0) 
 = 0.1347    (WHEN MIN. R.F.=1)  AT K=   3, I=   2, J=  31


 TOTAL NUMBER OF POINT SOURCES/SINKS PRESENT IN THE FLOW MODEL =   240

 MAXIMUM STEPSIZE WHICH MEETS STABILITY CRITERION OF THE SINK & SOURCE TERM
 = 0.1000E+31(WHEN MIN. R.F.=1)  AT K=   0, I=   0, J=   0

 MAXIMUM STEPSIZE WHICH MEETS STABILITY CRITERION OF THE DISPERSION TERM
 = 0.7275E-02(WHEN MIN. R.F.=1)  AT K=   3, I=   2, J=  30
     1 CALLS TO GCG PACKAGE FOR TRANSPORT TIME STEP   4 IN FLOW TIME STEP  75 STRESS PERIOD   2
    13 TOTAL ITERATIONS
 
 SOLVING FOR HEAD 
 FLOW MODEL IS TRANSIENT
 FLOW MODEL CONTAINS CONSTANT-HEAD CELLS


 MAXIMUM STEPSIZE DURING WHICH ANY PARTICLE CANNOT MOVE MORE THAN ONE CELL
 = 0.1698    (WHEN MIN. R.F.=1)  AT K=   3, I=   2, J=  30

 MAXIMUM STEPSIZE WHICH MEETS STABILITY CRITERION OF THE ADVECTION TERM
 (FOR PURE FINITE-DIFFERENCE OPTION, MIXELM=0) 
 = 0.1347    (WHEN MIN. R.F.=1)  AT K=   3, I=   2, J=  31


 TOTAL NUMBER OF POINT SOURCES/SINKS PRESENT IN THE FLOW MODEL =   240

 MAXIMUM STEPSIZE WHICH MEETS STABILITY CRITERION OF THE SINK & SOURCE TERM
 = 0.1000E+31(WHEN MIN. R.F.=1)  AT K=   0, I=   0, J=   0

 MAXIMUM STEPSIZE WHICH MEETS STABILITY CRITERION OF THE DISPERSION TERM
 = 0.7275E-02(WHEN MIN. R.F.=1)  AT K=   3, I=   2, J=  30
     1 CALLS TO GCG PACKAGE FOR TRANSPORT TIME STEP   5 IN FLOW TIME STEP  75 STRESS PERIOD   2
    13 TOTAL ITERATIONS
 
 SOLVING FOR HEAD 
 FLOW MODEL IS TRANSIENT
 FLOW MODEL CONTAINS CONSTANT-HEAD CELLS


 MAXIMUM STEPSIZE DURING WHICH ANY PARTICLE CANNOT MOVE MORE THAN ONE CELL
 = 0.1698    (WHEN MIN. R.F.=1)  AT K=   3, I=   2, J=  30

 MAXIMUM STEPSIZE WHICH MEETS STABILITY CRITERION OF THE ADVECTION TERM
 (FOR PURE FINITE-DIFFERENCE OPTION, MIXELM=0) 
 = 0.1347    (WHEN MIN. R.F.=1)  AT K=   3, I=   2, J=  31


 TOTAL NUMBER OF POINT SOURCES/SINKS PRESENT IN THE FLOW MODEL =   240

 MAXIMUM STEPSIZE WHICH MEETS STABILITY CRITERION OF THE SINK & SOURCE TERM
 = 0.1000E+31(WHEN MIN. R.F.=1)  AT K=   0, I=   0, J=   0

 MAXIMUM STEPSIZE WHICH MEETS STABILITY CRITERION OF THE DISPERSION TERM
 = 0.7275E-02(WHEN MIN. R.F.=1)  AT K=   3, I=   2, J=  30
     1 CALLS TO GCG PACKAGE FOR TRANSPORT TIME STEP   6 IN FLOW TIME STEP  75 STRESS PERIOD   2
    13 TOTAL ITERATIONS
 
 SOLVING FOR HEAD 
 FLOW MODEL IS TRANSIENT
 FLOW MODEL CONTAINS CONSTANT-HEAD CELLS


 MAXIMUM STEPSIZE DURING WHICH ANY PARTICLE CANNOT MOVE MORE THAN ONE CELL
 = 0.1698    (WHEN MIN. R.F.=1)  AT K=   3, I=   2, J=  30

 MAXIMUM STEPSIZE WHICH MEETS STABILITY CRITERION OF THE ADVECTION TERM
 (FOR PURE FINITE-DIFFERENCE OPTION, MIXELM=0) 
 = 0.1347    (WHEN MIN. R.F.=1)  AT K=   3, I=   2, J=  31


 TOTAL NUMBER OF POINT SOURCES/SINKS PRESENT IN THE FLOW MODEL =   240

 MAXIMUM STEPSIZE WHICH MEETS STABILITY CRITERION OF THE SINK & SOURCE TERM
 = 0.1000E+31(WHEN MIN. R.F.=1)  AT K=   0, I=   0, J=   0

 MAXIMUM STEPSIZE WHICH MEETS STABILITY CRITERION OF THE DISPERSION TERM
 = 0.7275E-02(WHEN MIN. R.F.=1)  AT K=   3, I=   2, J=  30
     1 CALLS TO GCG PACKAGE FOR TRANSPORT TIME STEP   7 IN FLOW TIME STEP  75 STRESS PERIOD   2
    13 TOTAL ITERATIONS
 
 SOLVING FOR HEAD 
 FLOW MODEL IS TRANSIENT
 FLOW MODEL CONTAINS CONSTANT-HEAD CELLS


 MAXIMUM STEPSIZE DURING WHICH ANY PARTICLE CANNOT MOVE MORE THAN ONE CELL
 = 0.1698    (WHEN MIN. R.F.=1)  AT K=   3, I=   2, J=  30

 MAXIMUM STEPSIZE WHICH MEETS STABILITY CRITERION OF THE ADVECTION TERM
 (FOR PURE FINITE-DIFFERENCE OPTION, MIXELM=0) 
 = 0.1347    (WHEN MIN. R.F.=1)  AT K=   3, I=   2, J=  31


 TOTAL NUMBER OF POINT SOURCES/SINKS PRESENT IN THE FLOW MODEL =   240

 MAXIMUM STEPSIZE WHICH MEETS STABILITY CRITERION OF THE SINK & SOURCE TERM
 = 0.1000E+31(WHEN MIN. R.F.=1)  AT K=   0, I=   0, J=   0

 MAXIMUM STEPSIZE WHICH MEETS STABILITY CRITERION OF THE DISPERSION TERM
 = 0.7275E-02(WHEN MIN. R.F.=1)  AT K=   3, I=   2, J=  30
     1 CALLS TO GCG PACKAGE FOR TRANSPORT TIME STEP   8 IN FLOW TIME STEP  75 STRESS PERIOD   2
    12 TOTAL ITERATIONS
  MAXIMUM CONCENTRATION CHANGES FOR EACH ITERATION:
  MAX. CHANGE LAYER,ROW,COL MAX. CHANGE LAYER,ROW,COL MAX. CHANGE LAYER,ROW,COL MAX. CHANGE LAYER,ROW,COL MAX. CHANGE LAYER,ROW,COL
 ------------------------------------------------------------------------------------------------------------------------------------
   0.6126E-03 ( 13,  1, 62)  0.7577E-04 (  9,  1, 57)  0.1955E-04 (  5,  2, 62)  0.7273E-05 (  5,  2, 59)  0.2554E-05 (  4,  2, 53)
   0.1407E-05 (  7,  1, 59)  0.5227E-06 (  3,  3, 28)  0.3555E-06 (  7,  1, 59)  0.2294E-06 (  4,  3, 29)  0.1511E-06 (  3,  3, 29)
   0.1077E-06 (  3,  2, 27)  0.6544E-07 (  3,  2, 28)


                                          ================================================
                                                         FROM TIME =   76.000     TO    77.000    

 
 SOLVING FOR HEAD 
 FLOW MODEL IS TRANSIENT
 FLOW MODEL CONTAINS CONSTANT-HEAD CELLS


 MAXIMUM STEPSIZE DURING WHICH ANY PARTICLE CANNOT MOVE MORE THAN ONE CELL
 = 0.1698    (WHEN MIN. R.F.=1)  AT K=   3, I=   2, J=  30

 MAXIMUM STEPSIZE WHICH MEETS STABILITY CRITERION OF THE ADVECTION TERM
 (FOR PURE FINITE-DIFFERENCE OPTION, MIXELM=0) 
 = 0.1347    (WHEN MIN. R.F.=1)  AT K=   3, I=   2, J=  31


 TOTAL NUMBER OF POINT SOURCES/SINKS PRESENT IN THE FLOW MODEL =   240

 MAXIMUM STEPSIZE WHICH MEETS STABILITY CRITERION OF THE SINK & SOURCE TERM
 = 0.1000E+31(WHEN MIN. R.F.=1)  AT K=   0, I=   0, J=   0

 MAXIMUM STEPSIZE WHICH MEETS STABILITY CRITERION OF THE DISPERSION TERM
 = 0.7275E-02(WHEN MIN. R.F.=1)  AT K=   3, I=   2, J=  30


     1 CALLS TO GCG PACKAGE FOR TRANSPORT TIME STEP   1 IN FLOW TIME STEP  76 STRESS PERIOD   2
    13 TOTAL ITERATIONS

 NO OUTPUT CONTROL FOR STRESS PERIOD    2   TIME STEP  76
 
 SOLVING FOR HEAD 
 FLOW MODEL IS TRANSIENT
 FLOW MODEL CONTAINS CONSTANT-HEAD CELLS


 MAXIMUM STEPSIZE DURING WHICH ANY PARTICLE CANNOT MOVE MORE THAN ONE CELL
 = 0.1698    (WHEN MIN. R.F.=1)  AT K=   3, I=   2, J=  30

 MAXIMUM STEPSIZE WHICH MEETS STABILITY CRITERION OF THE ADVECTION TERM
 (FOR PURE FINITE-DIFFERENCE OPTION, MIXELM=0) 
 = 0.1347    (WHEN MIN. R.F.=1)  AT K=   3, I=   2, J=  31


 TOTAL NUMBER OF POINT SOURCES/SINKS PRESENT IN THE FLOW MODEL =   240

 MAXIMUM STEPSIZE WHICH MEETS STABILITY CRITERION OF THE SINK & SOURCE TERM
 = 0.1000E+31(WHEN MIN. R.F.=1)  AT K=   0, I=   0, J=   0

 MAXIMUM STEPSIZE WHICH MEETS STABILITY CRITERION OF THE DISPERSION TERM
 = 0.7275E-02(WHEN MIN. R.F.=1)  AT K=   3, I=   2, J=  30
     1 CALLS TO GCG PACKAGE FOR TRANSPORT TIME STEP   2 IN FLOW TIME STEP  76 STRESS PERIOD   2
    13 TOTAL ITERATIONS
 
 SOLVING FOR HEAD 
 FLOW MODEL IS TRANSIENT
 FLOW MODEL CONTAINS CONSTANT-HEAD CELLS


 MAXIMUM STEPSIZE DURING WHICH ANY PARTICLE CANNOT MOVE MORE THAN ONE CELL
 = 0.1698    (WHEN MIN. R.F.=1)  AT K=   3, I=   2, J=  30

 MAXIMUM STEPSIZE WHICH MEETS STABILITY CRITERION OF THE ADVECTION TERM
 (FOR PURE FINITE-DIFFERENCE OPTION, MIXELM=0) 
 = 0.1347    (WHEN MIN. R.F.=1)  AT K=   3, I=   2, J=  31


 TOTAL NUMBER OF POINT SOURCES/SINKS PRESENT IN THE FLOW MODEL =   240

 MAXIMUM STEPSIZE WHICH MEETS STABILITY CRITERION OF THE SINK & SOURCE TERM
 = 0.1000E+31(WHEN MIN. R.F.=1)  AT K=   0, I=   0, J=   0

 MAXIMUM STEPSIZE WHICH MEETS STABILITY CRITERION OF THE DISPERSION TERM
 = 0.7275E-02(WHEN MIN. R.F.=1)  AT K=   3, I=   2, J=  30
     1 CALLS TO GCG PACKAGE FOR TRANSPORT TIME STEP   3 IN FLOW TIME STEP  76 STRESS PERIOD   2
    13 TOTAL ITERATIONS
 
 SOLVING FOR HEAD 
 FLOW MODEL IS TRANSIENT
 FLOW MODEL CONTAINS CONSTANT-HEAD CELLS


 MAXIMUM STEPSIZE DURING WHICH ANY PARTICLE CANNOT MOVE MORE THAN ONE CELL
 = 0.1698    (WHEN MIN. R.F.=1)  AT K=   3, I=   2, J=  30

 MAXIMUM STEPSIZE WHICH MEETS STABILITY CRITERION OF THE ADVECTION TERM
 (FOR PURE FINITE-DIFFERENCE OPTION, MIXELM=0) 
 = 0.1347    (WHEN MIN. R.F.=1)  AT K=   3, I=   2, J=  31


 TOTAL NUMBER OF POINT SOURCES/SINKS PRESENT IN THE FLOW MODEL =   240

 MAXIMUM STEPSIZE WHICH MEETS STABILITY CRITERION OF THE SINK & SOURCE TERM
 = 0.1000E+31(WHEN MIN. R.F.=1)  AT K=   0, I=   0, J=   0

 MAXIMUM STEPSIZE WHICH MEETS STABILITY CRITERION OF THE DISPERSION TERM
 = 0.7275E-02(WHEN MIN. R.F.=1)  AT K=   3, I=   2, J=  30
     1 CALLS TO GCG PACKAGE FOR TRANSPORT TIME STEP   4 IN FLOW TIME STEP  76 STRESS PERIOD   2
    13 TOTAL ITERATIONS
 
 SOLVING FOR HEAD 
 FLOW MODEL IS TRANSIENT
 FLOW MODEL CONTAINS CONSTANT-HEAD CELLS


 MAXIMUM STEPSIZE DURING WHICH ANY PARTICLE CANNOT MOVE MORE THAN ONE CELL
 = 0.1698    (WHEN MIN. R.F.=1)  AT K=   3, I=   2, J=  30

 MAXIMUM STEPSIZE WHICH MEETS STABILITY CRITERION OF THE ADVECTION TERM
 (FOR PURE FINITE-DIFFERENCE OPTION, MIXELM=0) 
 = 0.1347    (WHEN MIN. R.F.=1)  AT K=   3, I=   2, J=  31


 TOTAL NUMBER OF POINT SOURCES/SINKS PRESENT IN THE FLOW MODEL =   240

 MAXIMUM STEPSIZE WHICH MEETS STABILITY CRITERION OF THE SINK & SOURCE TERM
 = 0.1000E+31(WHEN MIN. R.F.=1)  AT K=   0, I=   0, J=   0

 MAXIMUM STEPSIZE WHICH MEETS STABILITY CRITERION OF THE DISPERSION TERM
 = 0.7275E-02(WHEN MIN. R.F.=1)  AT K=   3, I=   2, J=  30
     1 CALLS TO GCG PACKAGE FOR TRANSPORT TIME STEP   5 IN FLOW TIME STEP  76 STRESS PERIOD   2
    13 TOTAL ITERATIONS
 
 SOLVING FOR HEAD 
 FLOW MODEL IS TRANSIENT
 FLOW MODEL CONTAINS CONSTANT-HEAD CELLS


 MAXIMUM STEPSIZE DURING WHICH ANY PARTICLE CANNOT MOVE MORE THAN ONE CELL
 = 0.1698    (WHEN MIN. R.F.=1)  AT K=   3, I=   2, J=  30

 MAXIMUM STEPSIZE WHICH MEETS STABILITY CRITERION OF THE ADVECTION TERM
 (FOR PURE FINITE-DIFFERENCE OPTION, MIXELM=0) 
 = 0.1347    (WHEN MIN. R.F.=1)  AT K=   3, I=   2, J=  31


 TOTAL NUMBER OF POINT SOURCES/SINKS PRESENT IN THE FLOW MODEL =   240

 MAXIMUM STEPSIZE WHICH MEETS STABILITY CRITERION OF THE SINK & SOURCE TERM
 = 0.1000E+31(WHEN MIN. R.F.=1)  AT K=   0, I=   0, J=   0

 MAXIMUM STEPSIZE WHICH MEETS STABILITY CRITERION OF THE DISPERSION TERM
 = 0.7275E-02(WHEN MIN. R.F.=1)  AT K=   3, I=   2, J=  30
     1 CALLS TO GCG PACKAGE FOR TRANSPORT TIME STEP   6 IN FLOW TIME STEP  76 STRESS PERIOD   2
    13 TOTAL ITERATIONS
 
 SOLVING FOR HEAD 
 FLOW MODEL IS TRANSIENT
 FLOW MODEL CONTAINS CONSTANT-HEAD CELLS


 MAXIMUM STEPSIZE DURING WHICH ANY PARTICLE CANNOT MOVE MORE THAN ONE CELL
 = 0.1698    (WHEN MIN. R.F.=1)  AT K=   3, I=   2, J=  30

 MAXIMUM STEPSIZE WHICH MEETS STABILITY CRITERION OF THE ADVECTION TERM
 (FOR PURE FINITE-DIFFERENCE OPTION, MIXELM=0) 
 = 0.1347    (WHEN MIN. R.F.=1)  AT K=   3, I=   2, J=  31


 TOTAL NUMBER OF POINT SOURCES/SINKS PRESENT IN THE FLOW MODEL =   240

 MAXIMUM STEPSIZE WHICH MEETS STABILITY CRITERION OF THE SINK & SOURCE TERM
 = 0.1000E+31(WHEN MIN. R.F.=1)  AT K=   0, I=   0, J=   0

 MAXIMUM STEPSIZE WHICH MEETS STABILITY CRITERION OF THE DISPERSION TERM
 = 0.7275E-02(WHEN MIN. R.F.=1)  AT K=   3, I=   2, J=  30
     1 CALLS TO GCG PACKAGE FOR TRANSPORT TIME STEP   7 IN FLOW TIME STEP  76 STRESS PERIOD   2
    13 TOTAL ITERATIONS
 
 SOLVING FOR HEAD 
 FLOW MODEL IS TRANSIENT
 FLOW MODEL CONTAINS CONSTANT-HEAD CELLS


 MAXIMUM STEPSIZE DURING WHICH ANY PARTICLE CANNOT MOVE MORE THAN ONE CELL
 = 0.1698    (WHEN MIN. R.F.=1)  AT K=   3, I=   2, J=  30

 MAXIMUM STEPSIZE WHICH MEETS STABILITY CRITERION OF THE ADVECTION TERM
 (FOR PURE FINITE-DIFFERENCE OPTION, MIXELM=0) 
 = 0.1347    (WHEN MIN. R.F.=1)  AT K=   3, I=   2, J=  31


 TOTAL NUMBER OF POINT SOURCES/SINKS PRESENT IN THE FLOW MODEL =   240

 MAXIMUM STEPSIZE WHICH MEETS STABILITY CRITERION OF THE SINK & SOURCE TERM
 = 0.1000E+31(WHEN MIN. R.F.=1)  AT K=   0, I=   0, J=   0

 MAXIMUM STEPSIZE WHICH MEETS STABILITY CRITERION OF THE DISPERSION TERM
 = 0.7275E-02(WHEN MIN. R.F.=1)  AT K=   3, I=   2, J=  30
     1 CALLS TO GCG PACKAGE FOR TRANSPORT TIME STEP   8 IN FLOW TIME STEP  76 STRESS PERIOD   2
    12 TOTAL ITERATIONS
  MAXIMUM CONCENTRATION CHANGES FOR EACH ITERATION:
  MAX. CHANGE LAYER,ROW,COL MAX. CHANGE LAYER,ROW,COL MAX. CHANGE LAYER,ROW,COL MAX. CHANGE LAYER,ROW,COL MAX. CHANGE LAYER,ROW,COL
 ------------------------------------------------------------------------------------------------------------------------------------
   0.6026E-03 ( 13,  1, 62)  0.7367E-04 (  9,  1, 57)  0.1903E-04 (  5,  2, 62)  0.7078E-05 (  5,  2, 59)  0.2465E-05 (  4,  2, 53)
   0.1365E-05 (  7,  1, 59)  0.5666E-06 (  3,  2, 28)  0.3756E-06 (  4,  2, 28)  0.2581E-06 (  3,  2, 28)  0.1696E-06 (  3,  2, 29)
   0.1149E-06 (  3,  2, 30)  0.6780E-07 (  4,  2, 30)


                                          ================================================
                                                         FROM TIME =   77.000     TO    78.000    

 
 SOLVING FOR HEAD 
 FLOW MODEL IS TRANSIENT
 FLOW MODEL CONTAINS CONSTANT-HEAD CELLS


 MAXIMUM STEPSIZE DURING WHICH ANY PARTICLE CANNOT MOVE MORE THAN ONE CELL
 = 0.1698    (WHEN MIN. R.F.=1)  AT K=   3, I=   2, J=  30

 MAXIMUM STEPSIZE WHICH MEETS STABILITY CRITERION OF THE ADVECTION TERM
 (FOR PURE FINITE-DIFFERENCE OPTION, MIXELM=0) 
 = 0.1347    (WHEN MIN. R.F.=1)  AT K=   3, I=   2, J=  31


 TOTAL NUMBER OF POINT SOURCES/SINKS PRESENT IN THE FLOW MODEL =   240

 MAXIMUM STEPSIZE WHICH MEETS STABILITY CRITERION OF THE SINK & SOURCE TERM
 = 0.1000E+31(WHEN MIN. R.F.=1)  AT K=   0, I=   0, J=   0

 MAXIMUM STEPSIZE WHICH MEETS STABILITY CRITERION OF THE DISPERSION TERM
 = 0.7275E-02(WHEN MIN. R.F.=1)  AT K=   3, I=   2, J=  30


     1 CALLS TO GCG PACKAGE FOR TRANSPORT TIME STEP   1 IN FLOW TIME STEP  77 STRESS PERIOD   2
    12 TOTAL ITERATIONS

 NO OUTPUT CONTROL FOR STRESS PERIOD    2   TIME STEP  77
 
 SOLVING FOR HEAD 
 FLOW MODEL IS TRANSIENT
 FLOW MODEL CONTAINS CONSTANT-HEAD CELLS


 MAXIMUM STEPSIZE DURING WHICH ANY PARTICLE CANNOT MOVE MORE THAN ONE CELL
 = 0.1698    (WHEN MIN. R.F.=1)  AT K=   3, I=   2, J=  30

 MAXIMUM STEPSIZE WHICH MEETS STABILITY CRITERION OF THE ADVECTION TERM
 (FOR PURE FINITE-DIFFERENCE OPTION, MIXELM=0) 
 = 0.1347    (WHEN MIN. R.F.=1)  AT K=   3, I=   2, J=  31


 TOTAL NUMBER OF POINT SOURCES/SINKS PRESENT IN THE FLOW MODEL =   240

 MAXIMUM STEPSIZE WHICH MEETS STABILITY CRITERION OF THE SINK & SOURCE TERM
 = 0.1000E+31(WHEN MIN. R.F.=1)  AT K=   0, I=   0, J=   0

 MAXIMUM STEPSIZE WHICH MEETS STABILITY CRITERION OF THE DISPERSION TERM
 = 0.7275E-02(WHEN MIN. R.F.=1)  AT K=   3, I=   2, J=  30
     1 CALLS TO GCG PACKAGE FOR TRANSPORT TIME STEP   2 IN FLOW TIME STEP  77 STRESS PERIOD   2
    12 TOTAL ITERATIONS
 
 SOLVING FOR HEAD 
 FLOW MODEL IS TRANSIENT
 FLOW MODEL CONTAINS CONSTANT-HEAD CELLS


 MAXIMUM STEPSIZE DURING WHICH ANY PARTICLE CANNOT MOVE MORE THAN ONE CELL
 = 0.1698    (WHEN MIN. R.F.=1)  AT K=   3, I=   2, J=  30

 MAXIMUM STEPSIZE WHICH MEETS STABILITY CRITERION OF THE ADVECTION TERM
 (FOR PURE FINITE-DIFFERENCE OPTION, MIXELM=0) 
 = 0.1347    (WHEN MIN. R.F.=1)  AT K=   3, I=   2, J=  31


 TOTAL NUMBER OF POINT SOURCES/SINKS PRESENT IN THE FLOW MODEL =   240

 MAXIMUM STEPSIZE WHICH MEETS STABILITY CRITERION OF THE SINK & SOURCE TERM
 = 0.1000E+31(WHEN MIN. R.F.=1)  AT K=   0, I=   0, J=   0

 MAXIMUM STEPSIZE WHICH MEETS STABILITY CRITERION OF THE DISPERSION TERM
 = 0.7275E-02(WHEN MIN. R.F.=1)  AT K=   3, I=   2, J=  30
     1 CALLS TO GCG PACKAGE FOR TRANSPORT TIME STEP   3 IN FLOW TIME STEP  77 STRESS PERIOD   2
    12 TOTAL ITERATIONS
 
 SOLVING FOR HEAD 
 FLOW MODEL IS TRANSIENT
 FLOW MODEL CONTAINS CONSTANT-HEAD CELLS


 MAXIMUM STEPSIZE DURING WHICH ANY PARTICLE CANNOT MOVE MORE THAN ONE CELL
 = 0.1698    (WHEN MIN. R.F.=1)  AT K=   3, I=   2, J=  30

 MAXIMUM STEPSIZE WHICH MEETS STABILITY CRITERION OF THE ADVECTION TERM
 (FOR PURE FINITE-DIFFERENCE OPTION, MIXELM=0) 
 = 0.1347    (WHEN MIN. R.F.=1)  AT K=   3, I=   2, J=  31


 TOTAL NUMBER OF POINT SOURCES/SINKS PRESENT IN THE FLOW MODEL =   240

 MAXIMUM STEPSIZE WHICH MEETS STABILITY CRITERION OF THE SINK & SOURCE TERM
 = 0.1000E+31(WHEN MIN. R.F.=1)  AT K=   0, I=   0, J=   0

 MAXIMUM STEPSIZE WHICH MEETS STABILITY CRITERION OF THE DISPERSION TERM
 = 0.7275E-02(WHEN MIN. R.F.=1)  AT K=   3, I=   2, J=  30
     1 CALLS TO GCG PACKAGE FOR TRANSPORT TIME STEP   4 IN FLOW TIME STEP  77 STRESS PERIOD   2
    12 TOTAL ITERATIONS
 
 SOLVING FOR HEAD 
 FLOW MODEL IS TRANSIENT
 FLOW MODEL CONTAINS CONSTANT-HEAD CELLS


 MAXIMUM STEPSIZE DURING WHICH ANY PARTICLE CANNOT MOVE MORE THAN ONE CELL
 = 0.1698    (WHEN MIN. R.F.=1)  AT K=   3, I=   2, J=  30

 MAXIMUM STEPSIZE WHICH MEETS STABILITY CRITERION OF THE ADVECTION TERM
 (FOR PURE FINITE-DIFFERENCE OPTION, MIXELM=0) 
 = 0.1347    (WHEN MIN. R.F.=1)  AT K=   3, I=   2, J=  31


 TOTAL NUMBER OF POINT SOURCES/SINKS PRESENT IN THE FLOW MODEL =   240

 MAXIMUM STEPSIZE WHICH MEETS STABILITY CRITERION OF THE SINK & SOURCE TERM
 = 0.1000E+31(WHEN MIN. R.F.=1)  AT K=   0, I=   0, J=   0

 MAXIMUM STEPSIZE WHICH MEETS STABILITY CRITERION OF THE DISPERSION TERM
 = 0.7275E-02(WHEN MIN. R.F.=1)  AT K=   3, I=   2, J=  30
     1 CALLS TO GCG PACKAGE FOR TRANSPORT TIME STEP   5 IN FLOW TIME STEP  77 STRESS PERIOD   2
    12 TOTAL ITERATIONS
 
 SOLVING FOR HEAD 
 FLOW MODEL IS TRANSIENT
 FLOW MODEL CONTAINS CONSTANT-HEAD CELLS


 MAXIMUM STEPSIZE DURING WHICH ANY PARTICLE CANNOT MOVE MORE THAN ONE CELL
 = 0.1698    (WHEN MIN. R.F.=1)  AT K=   3, I=   2, J=  30

 MAXIMUM STEPSIZE WHICH MEETS STABILITY CRITERION OF THE ADVECTION TERM
 (FOR PURE FINITE-DIFFERENCE OPTION, MIXELM=0) 
 = 0.1347    (WHEN MIN. R.F.=1)  AT K=   3, I=   2, J=  31


 TOTAL NUMBER OF POINT SOURCES/SINKS PRESENT IN THE FLOW MODEL =   240

 MAXIMUM STEPSIZE WHICH MEETS STABILITY CRITERION OF THE SINK & SOURCE TERM
 = 0.1000E+31(WHEN MIN. R.F.=1)  AT K=   0, I=   0, J=   0

 MAXIMUM STEPSIZE WHICH MEETS STABILITY CRITERION OF THE DISPERSION TERM
 = 0.7275E-02(WHEN MIN. R.F.=1)  AT K=   3, I=   2, J=  30
     1 CALLS TO GCG PACKAGE FOR TRANSPORT TIME STEP   6 IN FLOW TIME STEP  77 STRESS PERIOD   2
    12 TOTAL ITERATIONS
 
 SOLVING FOR HEAD 
 FLOW MODEL IS TRANSIENT
 FLOW MODEL CONTAINS CONSTANT-HEAD CELLS


 MAXIMUM STEPSIZE DURING WHICH ANY PARTICLE CANNOT MOVE MORE THAN ONE CELL
 = 0.1698    (WHEN MIN. R.F.=1)  AT K=   3, I=   2, J=  30

 MAXIMUM STEPSIZE WHICH MEETS STABILITY CRITERION OF THE ADVECTION TERM
 (FOR PURE FINITE-DIFFERENCE OPTION, MIXELM=0) 
 = 0.1347    (WHEN MIN. R.F.=1)  AT K=   3, I=   2, J=  31


 TOTAL NUMBER OF POINT SOURCES/SINKS PRESENT IN THE FLOW MODEL =   240

 MAXIMUM STEPSIZE WHICH MEETS STABILITY CRITERION OF THE SINK & SOURCE TERM
 = 0.1000E+31(WHEN MIN. R.F.=1)  AT K=   0, I=   0, J=   0

 MAXIMUM STEPSIZE WHICH MEETS STABILITY CRITERION OF THE DISPERSION TERM
 = 0.7275E-02(WHEN MIN. R.F.=1)  AT K=   3, I=   2, J=  30
     1 CALLS TO GCG PACKAGE FOR TRANSPORT TIME STEP   7 IN FLOW TIME STEP  77 STRESS PERIOD   2
    12 TOTAL ITERATIONS
 
 SOLVING FOR HEAD 
 FLOW MODEL IS TRANSIENT
 FLOW MODEL CONTAINS CONSTANT-HEAD CELLS


 MAXIMUM STEPSIZE DURING WHICH ANY PARTICLE CANNOT MOVE MORE THAN ONE CELL
 = 0.1698    (WHEN MIN. R.F.=1)  AT K=   3, I=   2, J=  30

 MAXIMUM STEPSIZE WHICH MEETS STABILITY CRITERION OF THE ADVECTION TERM
 (FOR PURE FINITE-DIFFERENCE OPTION, MIXELM=0) 
 = 0.1347    (WHEN MIN. R.F.=1)  AT K=   3, I=   2, J=  31


 TOTAL NUMBER OF POINT SOURCES/SINKS PRESENT IN THE FLOW MODEL =   240

 MAXIMUM STEPSIZE WHICH MEETS STABILITY CRITERION OF THE SINK & SOURCE TERM
 = 0.1000E+31(WHEN MIN. R.F.=1)  AT K=   0, I=   0, J=   0

 MAXIMUM STEPSIZE WHICH MEETS STABILITY CRITERION OF THE DISPERSION TERM
 = 0.7275E-02(WHEN MIN. R.F.=1)  AT K=   3, I=   2, J=  30
     1 CALLS TO GCG PACKAGE FOR TRANSPORT TIME STEP   8 IN FLOW TIME STEP  77 STRESS PERIOD   2
    11 TOTAL ITERATIONS
  MAXIMUM CONCENTRATION CHANGES FOR EACH ITERATION:
  MAX. CHANGE LAYER,ROW,COL MAX. CHANGE LAYER,ROW,COL MAX. CHANGE LAYER,ROW,COL MAX. CHANGE LAYER,ROW,COL MAX. CHANGE LAYER,ROW,COL
 ------------------------------------------------------------------------------------------------------------------------------------
   0.5927E-03 ( 13,  1, 62)  0.7163E-04 (  9,  1, 57)  0.1852E-04 (  5,  2, 62)  0.6890E-05 (  5,  2, 59)  0.2373E-05 (  4,  2, 53)
   0.1287E-05 (  7,  1, 59)  0.5110E-06 (  3,  2, 28)  0.3318E-06 (  3,  2, 29)  0.2200E-06 (  4,  2, 29)  0.1398E-06 (  3,  2, 29)
   0.9269E-07 (  3,  2, 30)


                                          ================================================
                                                         FROM TIME =   78.000     TO    79.000    

 
 SOLVING FOR HEAD 
 FLOW MODEL IS TRANSIENT
 FLOW MODEL CONTAINS CONSTANT-HEAD CELLS


 MAXIMUM STEPSIZE DURING WHICH ANY PARTICLE CANNOT MOVE MORE THAN ONE CELL
 = 0.1698    (WHEN MIN. R.F.=1)  AT K=   3, I=   2, J=  30

 MAXIMUM STEPSIZE WHICH MEETS STABILITY CRITERION OF THE ADVECTION TERM
 (FOR PURE FINITE-DIFFERENCE OPTION, MIXELM=0) 
 = 0.1347    (WHEN MIN. R.F.=1)  AT K=   3, I=   2, J=  31


 TOTAL NUMBER OF POINT SOURCES/SINKS PRESENT IN THE FLOW MODEL =   240

 MAXIMUM STEPSIZE WHICH MEETS STABILITY CRITERION OF THE SINK & SOURCE TERM
 = 0.1000E+31(WHEN MIN. R.F.=1)  AT K=   0, I=   0, J=   0

 MAXIMUM STEPSIZE WHICH MEETS STABILITY CRITERION OF THE DISPERSION TERM
 = 0.7275E-02(WHEN MIN. R.F.=1)  AT K=   3, I=   2, J=  30


     1 CALLS TO GCG PACKAGE FOR TRANSPORT TIME STEP   1 IN FLOW TIME STEP  78 STRESS PERIOD   2
    12 TOTAL ITERATIONS

 NO OUTPUT CONTROL FOR STRESS PERIOD    2   TIME STEP  78
 
 SOLVING FOR HEAD 
 FLOW MODEL IS TRANSIENT
 FLOW MODEL CONTAINS CONSTANT-HEAD CELLS


 MAXIMUM STEPSIZE DURING WHICH ANY PARTICLE CANNOT MOVE MORE THAN ONE CELL
 = 0.1698    (WHEN MIN. R.F.=1)  AT K=   3, I=   2, J=  30

 MAXIMUM STEPSIZE WHICH MEETS STABILITY CRITERION OF THE ADVECTION TERM
 (FOR PURE FINITE-DIFFERENCE OPTION, MIXELM=0) 
 = 0.1347    (WHEN MIN. R.F.=1)  AT K=   3, I=   2, J=  31


 TOTAL NUMBER OF POINT SOURCES/SINKS PRESENT IN THE FLOW MODEL =   240

 MAXIMUM STEPSIZE WHICH MEETS STABILITY CRITERION OF THE SINK & SOURCE TERM
 = 0.1000E+31(WHEN MIN. R.F.=1)  AT K=   0, I=   0, J=   0

 MAXIMUM STEPSIZE WHICH MEETS STABILITY CRITERION OF THE DISPERSION TERM
 = 0.7275E-02(WHEN MIN. R.F.=1)  AT K=   3, I=   2, J=  30
     1 CALLS TO GCG PACKAGE FOR TRANSPORT TIME STEP   2 IN FLOW TIME STEP  78 STRESS PERIOD   2
    12 TOTAL ITERATIONS
 
 SOLVING FOR HEAD 
 FLOW MODEL IS TRANSIENT
 FLOW MODEL CONTAINS CONSTANT-HEAD CELLS


 MAXIMUM STEPSIZE DURING WHICH ANY PARTICLE CANNOT MOVE MORE THAN ONE CELL
 = 0.1698    (WHEN MIN. R.F.=1)  AT K=   3, I=   2, J=  30

 MAXIMUM STEPSIZE WHICH MEETS STABILITY CRITERION OF THE ADVECTION TERM
 (FOR PURE FINITE-DIFFERENCE OPTION, MIXELM=0) 
 = 0.1347    (WHEN MIN. R.F.=1)  AT K=   3, I=   2, J=  31


 TOTAL NUMBER OF POINT SOURCES/SINKS PRESENT IN THE FLOW MODEL =   240

 MAXIMUM STEPSIZE WHICH MEETS STABILITY CRITERION OF THE SINK & SOURCE TERM
 = 0.1000E+31(WHEN MIN. R.F.=1)  AT K=   0, I=   0, J=   0

 MAXIMUM STEPSIZE WHICH MEETS STABILITY CRITERION OF THE DISPERSION TERM
 = 0.7275E-02(WHEN MIN. R.F.=1)  AT K=   3, I=   2, J=  30
     1 CALLS TO GCG PACKAGE FOR TRANSPORT TIME STEP   3 IN FLOW TIME STEP  78 STRESS PERIOD   2
    12 TOTAL ITERATIONS
 
 SOLVING FOR HEAD 
 FLOW MODEL IS TRANSIENT
 FLOW MODEL CONTAINS CONSTANT-HEAD CELLS


 MAXIMUM STEPSIZE DURING WHICH ANY PARTICLE CANNOT MOVE MORE THAN ONE CELL
 = 0.1698    (WHEN MIN. R.F.=1)  AT K=   3, I=   2, J=  30

 MAXIMUM STEPSIZE WHICH MEETS STABILITY CRITERION OF THE ADVECTION TERM
 (FOR PURE FINITE-DIFFERENCE OPTION, MIXELM=0) 
 = 0.1347    (WHEN MIN. R.F.=1)  AT K=   3, I=   2, J=  31


 TOTAL NUMBER OF POINT SOURCES/SINKS PRESENT IN THE FLOW MODEL =   240

 MAXIMUM STEPSIZE WHICH MEETS STABILITY CRITERION OF THE SINK & SOURCE TERM
 = 0.1000E+31(WHEN MIN. R.F.=1)  AT K=   0, I=   0, J=   0

 MAXIMUM STEPSIZE WHICH MEETS STABILITY CRITERION OF THE DISPERSION TERM
 = 0.7275E-02(WHEN MIN. R.F.=1)  AT K=   3, I=   2, J=  30
     1 CALLS TO GCG PACKAGE FOR TRANSPORT TIME STEP   4 IN FLOW TIME STEP  78 STRESS PERIOD   2
    12 TOTAL ITERATIONS
 
 SOLVING FOR HEAD 
 FLOW MODEL IS TRANSIENT
 FLOW MODEL CONTAINS CONSTANT-HEAD CELLS


 MAXIMUM STEPSIZE DURING WHICH ANY PARTICLE CANNOT MOVE MORE THAN ONE CELL
 = 0.1698    (WHEN MIN. R.F.=1)  AT K=   3, I=   2, J=  30

 MAXIMUM STEPSIZE WHICH MEETS STABILITY CRITERION OF THE ADVECTION TERM
 (FOR PURE FINITE-DIFFERENCE OPTION, MIXELM=0) 
 = 0.1347    (WHEN MIN. R.F.=1)  AT K=   3, I=   2, J=  31


 TOTAL NUMBER OF POINT SOURCES/SINKS PRESENT IN THE FLOW MODEL =   240

 MAXIMUM STEPSIZE WHICH MEETS STABILITY CRITERION OF THE SINK & SOURCE TERM
 = 0.1000E+31(WHEN MIN. R.F.=1)  AT K=   0, I=   0, J=   0

 MAXIMUM STEPSIZE WHICH MEETS STABILITY CRITERION OF THE DISPERSION TERM
 = 0.7275E-02(WHEN MIN. R.F.=1)  AT K=   3, I=   2, J=  30
     1 CALLS TO GCG PACKAGE FOR TRANSPORT TIME STEP   5 IN FLOW TIME STEP  78 STRESS PERIOD   2
    12 TOTAL ITERATIONS
 
 SOLVING FOR HEAD 
 FLOW MODEL IS TRANSIENT
 FLOW MODEL CONTAINS CONSTANT-HEAD CELLS


 MAXIMUM STEPSIZE DURING WHICH ANY PARTICLE CANNOT MOVE MORE THAN ONE CELL
 = 0.1698    (WHEN MIN. R.F.=1)  AT K=   3, I=   2, J=  30

 MAXIMUM STEPSIZE WHICH MEETS STABILITY CRITERION OF THE ADVECTION TERM
 (FOR PURE FINITE-DIFFERENCE OPTION, MIXELM=0) 
 = 0.1347    (WHEN MIN. R.F.=1)  AT K=   3, I=   2, J=  31


 TOTAL NUMBER OF POINT SOURCES/SINKS PRESENT IN THE FLOW MODEL =   240

 MAXIMUM STEPSIZE WHICH MEETS STABILITY CRITERION OF THE SINK & SOURCE TERM
 = 0.1000E+31(WHEN MIN. R.F.=1)  AT K=   0, I=   0, J=   0

 MAXIMUM STEPSIZE WHICH MEETS STABILITY CRITERION OF THE DISPERSION TERM
 = 0.7275E-02(WHEN MIN. R.F.=1)  AT K=   3, I=   2, J=  30
     1 CALLS TO GCG PACKAGE FOR TRANSPORT TIME STEP   6 IN FLOW TIME STEP  78 STRESS PERIOD   2
    12 TOTAL ITERATIONS
 
 SOLVING FOR HEAD 
 FLOW MODEL IS TRANSIENT
 FLOW MODEL CONTAINS CONSTANT-HEAD CELLS


 MAXIMUM STEPSIZE DURING WHICH ANY PARTICLE CANNOT MOVE MORE THAN ONE CELL
 = 0.1698    (WHEN MIN. R.F.=1)  AT K=   3, I=   2, J=  30

 MAXIMUM STEPSIZE WHICH MEETS STABILITY CRITERION OF THE ADVECTION TERM
 (FOR PURE FINITE-DIFFERENCE OPTION, MIXELM=0) 
 = 0.1347    (WHEN MIN. R.F.=1)  AT K=   3, I=   2, J=  31


 TOTAL NUMBER OF POINT SOURCES/SINKS PRESENT IN THE FLOW MODEL =   240

 MAXIMUM STEPSIZE WHICH MEETS STABILITY CRITERION OF THE SINK & SOURCE TERM
 = 0.1000E+31(WHEN MIN. R.F.=1)  AT K=   0, I=   0, J=   0

 MAXIMUM STEPSIZE WHICH MEETS STABILITY CRITERION OF THE DISPERSION TERM
 = 0.7275E-02(WHEN MIN. R.F.=1)  AT K=   3, I=   2, J=  30
     1 CALLS TO GCG PACKAGE FOR TRANSPORT TIME STEP   7 IN FLOW TIME STEP  78 STRESS PERIOD   2
    12 TOTAL ITERATIONS
 
 SOLVING FOR HEAD 
 FLOW MODEL IS TRANSIENT
 FLOW MODEL CONTAINS CONSTANT-HEAD CELLS


 MAXIMUM STEPSIZE DURING WHICH ANY PARTICLE CANNOT MOVE MORE THAN ONE CELL
 = 0.1698    (WHEN MIN. R.F.=1)  AT K=   3, I=   2, J=  30

 MAXIMUM STEPSIZE WHICH MEETS STABILITY CRITERION OF THE ADVECTION TERM
 (FOR PURE FINITE-DIFFERENCE OPTION, MIXELM=0) 
 = 0.1347    (WHEN MIN. R.F.=1)  AT K=   3, I=   2, J=  31


 TOTAL NUMBER OF POINT SOURCES/SINKS PRESENT IN THE FLOW MODEL =   240

 MAXIMUM STEPSIZE WHICH MEETS STABILITY CRITERION OF THE SINK & SOURCE TERM
 = 0.1000E+31(WHEN MIN. R.F.=1)  AT K=   0, I=   0, J=   0

 MAXIMUM STEPSIZE WHICH MEETS STABILITY CRITERION OF THE DISPERSION TERM
 = 0.7275E-02(WHEN MIN. R.F.=1)  AT K=   3, I=   2, J=  30
     1 CALLS TO GCG PACKAGE FOR TRANSPORT TIME STEP   8 IN FLOW TIME STEP  78 STRESS PERIOD   2
    11 TOTAL ITERATIONS
  MAXIMUM CONCENTRATION CHANGES FOR EACH ITERATION:
  MAX. CHANGE LAYER,ROW,COL MAX. CHANGE LAYER,ROW,COL MAX. CHANGE LAYER,ROW,COL MAX. CHANGE LAYER,ROW,COL MAX. CHANGE LAYER,ROW,COL
 ------------------------------------------------------------------------------------------------------------------------------------
   0.5936E-03 ( 15,  1, 48)  0.6965E-04 (  9,  1, 57)  0.1803E-04 (  5,  2, 62)  0.6710E-05 (  5,  2, 59)  0.2293E-05 (  4,  2, 53)
   0.1259E-05 (  7,  1, 59)  0.4223E-06 (  3,  3, 28)  0.2887E-06 (  7,  1, 59)  0.1806E-06 (  4,  3, 29)  0.1164E-06 (  2,  2, 27)
   0.8966E-07 (  3,  2, 27)


                                          ================================================
                                                         FROM TIME =   79.000     TO    80.000    

 
 SOLVING FOR HEAD 
 FLOW MODEL IS TRANSIENT
 FLOW MODEL CONTAINS CONSTANT-HEAD CELLS


 MAXIMUM STEPSIZE DURING WHICH ANY PARTICLE CANNOT MOVE MORE THAN ONE CELL
 = 0.1698    (WHEN MIN. R.F.=1)  AT K=   3, I=   2, J=  30

 MAXIMUM STEPSIZE WHICH MEETS STABILITY CRITERION OF THE ADVECTION TERM
 (FOR PURE FINITE-DIFFERENCE OPTION, MIXELM=0) 
 = 0.1347    (WHEN MIN. R.F.=1)  AT K=   3, I=   2, J=  31


 TOTAL NUMBER OF POINT SOURCES/SINKS PRESENT IN THE FLOW MODEL =   240

 MAXIMUM STEPSIZE WHICH MEETS STABILITY CRITERION OF THE SINK & SOURCE TERM
 = 0.1000E+31(WHEN MIN. R.F.=1)  AT K=   0, I=   0, J=   0

 MAXIMUM STEPSIZE WHICH MEETS STABILITY CRITERION OF THE DISPERSION TERM
 = 0.7275E-02(WHEN MIN. R.F.=1)  AT K=   3, I=   2, J=  30


     1 CALLS TO GCG PACKAGE FOR TRANSPORT TIME STEP   1 IN FLOW TIME STEP  79 STRESS PERIOD   2
    12 TOTAL ITERATIONS

 NO OUTPUT CONTROL FOR STRESS PERIOD    2   TIME STEP  79
 
 SOLVING FOR HEAD 
 FLOW MODEL IS TRANSIENT
 FLOW MODEL CONTAINS CONSTANT-HEAD CELLS


 MAXIMUM STEPSIZE DURING WHICH ANY PARTICLE CANNOT MOVE MORE THAN ONE CELL
 = 0.1698    (WHEN MIN. R.F.=1)  AT K=   3, I=   2, J=  30

 MAXIMUM STEPSIZE WHICH MEETS STABILITY CRITERION OF THE ADVECTION TERM
 (FOR PURE FINITE-DIFFERENCE OPTION, MIXELM=0) 
 = 0.1347    (WHEN MIN. R.F.=1)  AT K=   3, I=   2, J=  31


 TOTAL NUMBER OF POINT SOURCES/SINKS PRESENT IN THE FLOW MODEL =   240

 MAXIMUM STEPSIZE WHICH MEETS STABILITY CRITERION OF THE SINK & SOURCE TERM
 = 0.1000E+31(WHEN MIN. R.F.=1)  AT K=   0, I=   0, J=   0

 MAXIMUM STEPSIZE WHICH MEETS STABILITY CRITERION OF THE DISPERSION TERM
 = 0.7275E-02(WHEN MIN. R.F.=1)  AT K=   3, I=   2, J=  30
     1 CALLS TO GCG PACKAGE FOR TRANSPORT TIME STEP   2 IN FLOW TIME STEP  79 STRESS PERIOD   2
    12 TOTAL ITERATIONS
 
 SOLVING FOR HEAD 
 FLOW MODEL IS TRANSIENT
 FLOW MODEL CONTAINS CONSTANT-HEAD CELLS


 MAXIMUM STEPSIZE DURING WHICH ANY PARTICLE CANNOT MOVE MORE THAN ONE CELL
 = 0.1698    (WHEN MIN. R.F.=1)  AT K=   3, I=   2, J=  30

 MAXIMUM STEPSIZE WHICH MEETS STABILITY CRITERION OF THE ADVECTION TERM
 (FOR PURE FINITE-DIFFERENCE OPTION, MIXELM=0) 
 = 0.1347    (WHEN MIN. R.F.=1)  AT K=   3, I=   2, J=  31


 TOTAL NUMBER OF POINT SOURCES/SINKS PRESENT IN THE FLOW MODEL =   240

 MAXIMUM STEPSIZE WHICH MEETS STABILITY CRITERION OF THE SINK & SOURCE TERM
 = 0.1000E+31(WHEN MIN. R.F.=1)  AT K=   0, I=   0, J=   0

 MAXIMUM STEPSIZE WHICH MEETS STABILITY CRITERION OF THE DISPERSION TERM
 = 0.7275E-02(WHEN MIN. R.F.=1)  AT K=   3, I=   2, J=  30
     1 CALLS TO GCG PACKAGE FOR TRANSPORT TIME STEP   3 IN FLOW TIME STEP  79 STRESS PERIOD   2
    12 TOTAL ITERATIONS
 
 SOLVING FOR HEAD 
 FLOW MODEL IS TRANSIENT
 FLOW MODEL CONTAINS CONSTANT-HEAD CELLS


 MAXIMUM STEPSIZE DURING WHICH ANY PARTICLE CANNOT MOVE MORE THAN ONE CELL
 = 0.1698    (WHEN MIN. R.F.=1)  AT K=   3, I=   2, J=  30

 MAXIMUM STEPSIZE WHICH MEETS STABILITY CRITERION OF THE ADVECTION TERM
 (FOR PURE FINITE-DIFFERENCE OPTION, MIXELM=0) 
 = 0.1347    (WHEN MIN. R.F.=1)  AT K=   3, I=   2, J=  31


 TOTAL NUMBER OF POINT SOURCES/SINKS PRESENT IN THE FLOW MODEL =   240

 MAXIMUM STEPSIZE WHICH MEETS STABILITY CRITERION OF THE SINK & SOURCE TERM
 = 0.1000E+31(WHEN MIN. R.F.=1)  AT K=   0, I=   0, J=   0

 MAXIMUM STEPSIZE WHICH MEETS STABILITY CRITERION OF THE DISPERSION TERM
 = 0.7275E-02(WHEN MIN. R.F.=1)  AT K=   3, I=   2, J=  30
     1 CALLS TO GCG PACKAGE FOR TRANSPORT TIME STEP   4 IN FLOW TIME STEP  79 STRESS PERIOD   2
    12 TOTAL ITERATIONS
 
 SOLVING FOR HEAD 
 FLOW MODEL IS TRANSIENT
 FLOW MODEL CONTAINS CONSTANT-HEAD CELLS


 MAXIMUM STEPSIZE DURING WHICH ANY PARTICLE CANNOT MOVE MORE THAN ONE CELL
 = 0.1698    (WHEN MIN. R.F.=1)  AT K=   3, I=   2, J=  30

 MAXIMUM STEPSIZE WHICH MEETS STABILITY CRITERION OF THE ADVECTION TERM
 (FOR PURE FINITE-DIFFERENCE OPTION, MIXELM=0) 
 = 0.1347    (WHEN MIN. R.F.=1)  AT K=   3, I=   2, J=  31


 TOTAL NUMBER OF POINT SOURCES/SINKS PRESENT IN THE FLOW MODEL =   240

 MAXIMUM STEPSIZE WHICH MEETS STABILITY CRITERION OF THE SINK & SOURCE TERM
 = 0.1000E+31(WHEN MIN. R.F.=1)  AT K=   0, I=   0, J=   0

 MAXIMUM STEPSIZE WHICH MEETS STABILITY CRITERION OF THE DISPERSION TERM
 = 0.7275E-02(WHEN MIN. R.F.=1)  AT K=   3, I=   2, J=  30
     1 CALLS TO GCG PACKAGE FOR TRANSPORT TIME STEP   5 IN FLOW TIME STEP  79 STRESS PERIOD   2
    12 TOTAL ITERATIONS
 
 SOLVING FOR HEAD 
 FLOW MODEL IS TRANSIENT
 FLOW MODEL CONTAINS CONSTANT-HEAD CELLS


 MAXIMUM STEPSIZE DURING WHICH ANY PARTICLE CANNOT MOVE MORE THAN ONE CELL
 = 0.1698    (WHEN MIN. R.F.=1)  AT K=   3, I=   2, J=  30

 MAXIMUM STEPSIZE WHICH MEETS STABILITY CRITERION OF THE ADVECTION TERM
 (FOR PURE FINITE-DIFFERENCE OPTION, MIXELM=0) 
 = 0.1347    (WHEN MIN. R.F.=1)  AT K=   3, I=   2, J=  31


 TOTAL NUMBER OF POINT SOURCES/SINKS PRESENT IN THE FLOW MODEL =   240

 MAXIMUM STEPSIZE WHICH MEETS STABILITY CRITERION OF THE SINK & SOURCE TERM
 = 0.1000E+31(WHEN MIN. R.F.=1)  AT K=   0, I=   0, J=   0

 MAXIMUM STEPSIZE WHICH MEETS STABILITY CRITERION OF THE DISPERSION TERM
 = 0.7275E-02(WHEN MIN. R.F.=1)  AT K=   3, I=   2, J=  30
     1 CALLS TO GCG PACKAGE FOR TRANSPORT TIME STEP   6 IN FLOW TIME STEP  79 STRESS PERIOD   2
    12 TOTAL ITERATIONS
 
 SOLVING FOR HEAD 
 FLOW MODEL IS TRANSIENT
 FLOW MODEL CONTAINS CONSTANT-HEAD CELLS


 MAXIMUM STEPSIZE DURING WHICH ANY PARTICLE CANNOT MOVE MORE THAN ONE CELL
 = 0.1698    (WHEN MIN. R.F.=1)  AT K=   3, I=   2, J=  30

 MAXIMUM STEPSIZE WHICH MEETS STABILITY CRITERION OF THE ADVECTION TERM
 (FOR PURE FINITE-DIFFERENCE OPTION, MIXELM=0) 
 = 0.1347    (WHEN MIN. R.F.=1)  AT K=   3, I=   2, J=  31


 TOTAL NUMBER OF POINT SOURCES/SINKS PRESENT IN THE FLOW MODEL =   240

 MAXIMUM STEPSIZE WHICH MEETS STABILITY CRITERION OF THE SINK & SOURCE TERM
 = 0.1000E+31(WHEN MIN. R.F.=1)  AT K=   0, I=   0, J=   0

 MAXIMUM STEPSIZE WHICH MEETS STABILITY CRITERION OF THE DISPERSION TERM
 = 0.7275E-02(WHEN MIN. R.F.=1)  AT K=   3, I=   2, J=  30
     1 CALLS TO GCG PACKAGE FOR TRANSPORT TIME STEP   7 IN FLOW TIME STEP  79 STRESS PERIOD   2
    12 TOTAL ITERATIONS
 
 SOLVING FOR HEAD 
 FLOW MODEL IS TRANSIENT
 FLOW MODEL CONTAINS CONSTANT-HEAD CELLS


 MAXIMUM STEPSIZE DURING WHICH ANY PARTICLE CANNOT MOVE MORE THAN ONE CELL
 = 0.1698    (WHEN MIN. R.F.=1)  AT K=   3, I=   2, J=  30

 MAXIMUM STEPSIZE WHICH MEETS STABILITY CRITERION OF THE ADVECTION TERM
 (FOR PURE FINITE-DIFFERENCE OPTION, MIXELM=0) 
 = 0.1347    (WHEN MIN. R.F.=1)  AT K=   3, I=   2, J=  31


 TOTAL NUMBER OF POINT SOURCES/SINKS PRESENT IN THE FLOW MODEL =   240

 MAXIMUM STEPSIZE WHICH MEETS STABILITY CRITERION OF THE SINK & SOURCE TERM
 = 0.1000E+31(WHEN MIN. R.F.=1)  AT K=   0, I=   0, J=   0

 MAXIMUM STEPSIZE WHICH MEETS STABILITY CRITERION OF THE DISPERSION TERM
 = 0.7275E-02(WHEN MIN. R.F.=1)  AT K=   3, I=   2, J=  30
     1 CALLS TO GCG PACKAGE FOR TRANSPORT TIME STEP   8 IN FLOW TIME STEP  79 STRESS PERIOD   2
    11 TOTAL ITERATIONS
  MAXIMUM CONCENTRATION CHANGES FOR EACH ITERATION:
  MAX. CHANGE LAYER,ROW,COL MAX. CHANGE LAYER,ROW,COL MAX. CHANGE LAYER,ROW,COL MAX. CHANGE LAYER,ROW,COL MAX. CHANGE LAYER,ROW,COL
 ------------------------------------------------------------------------------------------------------------------------------------
   0.5944E-03 ( 15,  1, 48)  0.6772E-04 (  9,  1, 57)  0.1755E-04 (  5,  2, 62)  0.6536E-05 (  5,  2, 59)  0.2214E-05 (  4,  2, 53)
   0.1211E-05 (  7,  1, 59)  0.4491E-06 (  3,  2, 28)  0.2886E-06 (  3,  2, 29)  0.1916E-06 (  4,  2, 29)  0.1230E-06 (  3,  2, 29)
   0.8222E-07 (  3,  2, 30)


                                          ================================================
                                                         FROM TIME =   80.000     TO    81.000    

 
 SOLVING FOR HEAD 
 FLOW MODEL IS TRANSIENT
 FLOW MODEL CONTAINS CONSTANT-HEAD CELLS


 MAXIMUM STEPSIZE DURING WHICH ANY PARTICLE CANNOT MOVE MORE THAN ONE CELL
 = 0.1698    (WHEN MIN. R.F.=1)  AT K=   3, I=   2, J=  30

 MAXIMUM STEPSIZE WHICH MEETS STABILITY CRITERION OF THE ADVECTION TERM
 (FOR PURE FINITE-DIFFERENCE OPTION, MIXELM=0) 
 = 0.1347    (WHEN MIN. R.F.=1)  AT K=   3, I=   2, J=  31


 TOTAL NUMBER OF POINT SOURCES/SINKS PRESENT IN THE FLOW MODEL =   240

 MAXIMUM STEPSIZE WHICH MEETS STABILITY CRITERION OF THE SINK & SOURCE TERM
 = 0.1000E+31(WHEN MIN. R.F.=1)  AT K=   0, I=   0, J=   0

 MAXIMUM STEPSIZE WHICH MEETS STABILITY CRITERION OF THE DISPERSION TERM
 = 0.7275E-02(WHEN MIN. R.F.=1)  AT K=   3, I=   2, J=  30


     1 CALLS TO GCG PACKAGE FOR TRANSPORT TIME STEP   1 IN FLOW TIME STEP  80 STRESS PERIOD   2
    12 TOTAL ITERATIONS

 NO OUTPUT CONTROL FOR STRESS PERIOD    2   TIME STEP  80
 
 SOLVING FOR HEAD 
 FLOW MODEL IS TRANSIENT
 FLOW MODEL CONTAINS CONSTANT-HEAD CELLS


 MAXIMUM STEPSIZE DURING WHICH ANY PARTICLE CANNOT MOVE MORE THAN ONE CELL
 = 0.1698    (WHEN MIN. R.F.=1)  AT K=   3, I=   2, J=  30

 MAXIMUM STEPSIZE WHICH MEETS STABILITY CRITERION OF THE ADVECTION TERM
 (FOR PURE FINITE-DIFFERENCE OPTION, MIXELM=0) 
 = 0.1347    (WHEN MIN. R.F.=1)  AT K=   3, I=   2, J=  31


 TOTAL NUMBER OF POINT SOURCES/SINKS PRESENT IN THE FLOW MODEL =   240

 MAXIMUM STEPSIZE WHICH MEETS STABILITY CRITERION OF THE SINK & SOURCE TERM
 = 0.1000E+31(WHEN MIN. R.F.=1)  AT K=   0, I=   0, J=   0

 MAXIMUM STEPSIZE WHICH MEETS STABILITY CRITERION OF THE DISPERSION TERM
 = 0.7275E-02(WHEN MIN. R.F.=1)  AT K=   3, I=   2, J=  30
     1 CALLS TO GCG PACKAGE FOR TRANSPORT TIME STEP   2 IN FLOW TIME STEP  80 STRESS PERIOD   2
    12 TOTAL ITERATIONS
 
 SOLVING FOR HEAD 
 FLOW MODEL IS TRANSIENT
 FLOW MODEL CONTAINS CONSTANT-HEAD CELLS


 MAXIMUM STEPSIZE DURING WHICH ANY PARTICLE CANNOT MOVE MORE THAN ONE CELL
 = 0.1698    (WHEN MIN. R.F.=1)  AT K=   3, I=   2, J=  30

 MAXIMUM STEPSIZE WHICH MEETS STABILITY CRITERION OF THE ADVECTION TERM
 (FOR PURE FINITE-DIFFERENCE OPTION, MIXELM=0) 
 = 0.1347    (WHEN MIN. R.F.=1)  AT K=   3, I=   2, J=  31


 TOTAL NUMBER OF POINT SOURCES/SINKS PRESENT IN THE FLOW MODEL =   240

 MAXIMUM STEPSIZE WHICH MEETS STABILITY CRITERION OF THE SINK & SOURCE TERM
 = 0.1000E+31(WHEN MIN. R.F.=1)  AT K=   0, I=   0, J=   0

 MAXIMUM STEPSIZE WHICH MEETS STABILITY CRITERION OF THE DISPERSION TERM
 = 0.7275E-02(WHEN MIN. R.F.=1)  AT K=   3, I=   2, J=  30
     1 CALLS TO GCG PACKAGE FOR TRANSPORT TIME STEP   3 IN FLOW TIME STEP  80 STRESS PERIOD   2
    12 TOTAL ITERATIONS
 
 SOLVING FOR HEAD 
 FLOW MODEL IS TRANSIENT
 FLOW MODEL CONTAINS CONSTANT-HEAD CELLS


 MAXIMUM STEPSIZE DURING WHICH ANY PARTICLE CANNOT MOVE MORE THAN ONE CELL
 = 0.1698    (WHEN MIN. R.F.=1)  AT K=   3, I=   2, J=  30

 MAXIMUM STEPSIZE WHICH MEETS STABILITY CRITERION OF THE ADVECTION TERM
 (FOR PURE FINITE-DIFFERENCE OPTION, MIXELM=0) 
 = 0.1347    (WHEN MIN. R.F.=1)  AT K=   3, I=   2, J=  31


 TOTAL NUMBER OF POINT SOURCES/SINKS PRESENT IN THE FLOW MODEL =   240

 MAXIMUM STEPSIZE WHICH MEETS STABILITY CRITERION OF THE SINK & SOURCE TERM
 = 0.1000E+31(WHEN MIN. R.F.=1)  AT K=   0, I=   0, J=   0

 MAXIMUM STEPSIZE WHICH MEETS STABILITY CRITERION OF THE DISPERSION TERM
 = 0.7275E-02(WHEN MIN. R.F.=1)  AT K=   3, I=   2, J=  30
     1 CALLS TO GCG PACKAGE FOR TRANSPORT TIME STEP   4 IN FLOW TIME STEP  80 STRESS PERIOD   2
    12 TOTAL ITERATIONS
 
 SOLVING FOR HEAD 
 FLOW MODEL IS TRANSIENT
 FLOW MODEL CONTAINS CONSTANT-HEAD CELLS


 MAXIMUM STEPSIZE DURING WHICH ANY PARTICLE CANNOT MOVE MORE THAN ONE CELL
 = 0.1698    (WHEN MIN. R.F.=1)  AT K=   3, I=   2, J=  30

 MAXIMUM STEPSIZE WHICH MEETS STABILITY CRITERION OF THE ADVECTION TERM
 (FOR PURE FINITE-DIFFERENCE OPTION, MIXELM=0) 
 = 0.1347    (WHEN MIN. R.F.=1)  AT K=   3, I=   2, J=  31


 TOTAL NUMBER OF POINT SOURCES/SINKS PRESENT IN THE FLOW MODEL =   240

 MAXIMUM STEPSIZE WHICH MEETS STABILITY CRITERION OF THE SINK & SOURCE TERM
 = 0.1000E+31(WHEN MIN. R.F.=1)  AT K=   0, I=   0, J=   0

 MAXIMUM STEPSIZE WHICH MEETS STABILITY CRITERION OF THE DISPERSION TERM
 = 0.7275E-02(WHEN MIN. R.F.=1)  AT K=   3, I=   2, J=  30
     1 CALLS TO GCG PACKAGE FOR TRANSPORT TIME STEP   5 IN FLOW TIME STEP  80 STRESS PERIOD   2
    12 TOTAL ITERATIONS
 
 SOLVING FOR HEAD 
 FLOW MODEL IS TRANSIENT
 FLOW MODEL CONTAINS CONSTANT-HEAD CELLS


 MAXIMUM STEPSIZE DURING WHICH ANY PARTICLE CANNOT MOVE MORE THAN ONE CELL
 = 0.1698    (WHEN MIN. R.F.=1)  AT K=   3, I=   2, J=  30

 MAXIMUM STEPSIZE WHICH MEETS STABILITY CRITERION OF THE ADVECTION TERM
 (FOR PURE FINITE-DIFFERENCE OPTION, MIXELM=0) 
 = 0.1347    (WHEN MIN. R.F.=1)  AT K=   3, I=   2, J=  31


 TOTAL NUMBER OF POINT SOURCES/SINKS PRESENT IN THE FLOW MODEL =   240

 MAXIMUM STEPSIZE WHICH MEETS STABILITY CRITERION OF THE SINK & SOURCE TERM
 = 0.1000E+31(WHEN MIN. R.F.=1)  AT K=   0, I=   0, J=   0

 MAXIMUM STEPSIZE WHICH MEETS STABILITY CRITERION OF THE DISPERSION TERM
 = 0.7274E-02(WHEN MIN. R.F.=1)  AT K=   3, I=   2, J=  30
     1 CALLS TO GCG PACKAGE FOR TRANSPORT TIME STEP   6 IN FLOW TIME STEP  80 STRESS PERIOD   2
    12 TOTAL ITERATIONS
 
 SOLVING FOR HEAD 
 FLOW MODEL IS TRANSIENT
 FLOW MODEL CONTAINS CONSTANT-HEAD CELLS


 MAXIMUM STEPSIZE DURING WHICH ANY PARTICLE CANNOT MOVE MORE THAN ONE CELL
 = 0.1698    (WHEN MIN. R.F.=1)  AT K=   3, I=   2, J=  30

 MAXIMUM STEPSIZE WHICH MEETS STABILITY CRITERION OF THE ADVECTION TERM
 (FOR PURE FINITE-DIFFERENCE OPTION, MIXELM=0) 
 = 0.1347    (WHEN MIN. R.F.=1)  AT K=   3, I=   2, J=  31


 TOTAL NUMBER OF POINT SOURCES/SINKS PRESENT IN THE FLOW MODEL =   240

 MAXIMUM STEPSIZE WHICH MEETS STABILITY CRITERION OF THE SINK & SOURCE TERM
 = 0.1000E+31(WHEN MIN. R.F.=1)  AT K=   0, I=   0, J=   0

 MAXIMUM STEPSIZE WHICH MEETS STABILITY CRITERION OF THE DISPERSION TERM
 = 0.7274E-02(WHEN MIN. R.F.=1)  AT K=   3, I=   2, J=  30
     1 CALLS TO GCG PACKAGE FOR TRANSPORT TIME STEP   7 IN FLOW TIME STEP  80 STRESS PERIOD   2
    12 TOTAL ITERATIONS
 
 SOLVING FOR HEAD 
 FLOW MODEL IS TRANSIENT
 FLOW MODEL CONTAINS CONSTANT-HEAD CELLS


 MAXIMUM STEPSIZE DURING WHICH ANY PARTICLE CANNOT MOVE MORE THAN ONE CELL
 = 0.1698    (WHEN MIN. R.F.=1)  AT K=   3, I=   2, J=  30

 MAXIMUM STEPSIZE WHICH MEETS STABILITY CRITERION OF THE ADVECTION TERM
 (FOR PURE FINITE-DIFFERENCE OPTION, MIXELM=0) 
 = 0.1347    (WHEN MIN. R.F.=1)  AT K=   3, I=   2, J=  31


 TOTAL NUMBER OF POINT SOURCES/SINKS PRESENT IN THE FLOW MODEL =   240

 MAXIMUM STEPSIZE WHICH MEETS STABILITY CRITERION OF THE SINK & SOURCE TERM
 = 0.1000E+31(WHEN MIN. R.F.=1)  AT K=   0, I=   0, J=   0

 MAXIMUM STEPSIZE WHICH MEETS STABILITY CRITERION OF THE DISPERSION TERM
 = 0.7274E-02(WHEN MIN. R.F.=1)  AT K=   3, I=   2, J=  30
     1 CALLS TO GCG PACKAGE FOR TRANSPORT TIME STEP   8 IN FLOW TIME STEP  80 STRESS PERIOD   2
    11 TOTAL ITERATIONS
  MAXIMUM CONCENTRATION CHANGES FOR EACH ITERATION:
  MAX. CHANGE LAYER,ROW,COL MAX. CHANGE LAYER,ROW,COL MAX. CHANGE LAYER,ROW,COL MAX. CHANGE LAYER,ROW,COL MAX. CHANGE LAYER,ROW,COL
 ------------------------------------------------------------------------------------------------------------------------------------
   0.5952E-03 ( 15,  1, 48)  0.6586E-04 (  9,  1, 57)  0.1709E-04 (  5,  2, 62)  0.6368E-05 (  5,  2, 59)  0.2138E-05 (  4,  2, 53)
   0.1180E-05 (  7,  1, 59)  0.3714E-06 (  4,  2, 43)  0.2563E-06 (  7,  1, 59)  0.1547E-06 (  3,  3, 28)  0.1020E-06 (  2,  2, 27)
   0.8003E-07 (  3,  2, 27)


                                          ================================================
                                                         FROM TIME =   81.000     TO    82.000    

 
 SOLVING FOR HEAD 
 FLOW MODEL IS TRANSIENT
 FLOW MODEL CONTAINS CONSTANT-HEAD CELLS


 MAXIMUM STEPSIZE DURING WHICH ANY PARTICLE CANNOT MOVE MORE THAN ONE CELL
 = 0.1698    (WHEN MIN. R.F.=1)  AT K=   3, I=   2, J=  30

 MAXIMUM STEPSIZE WHICH MEETS STABILITY CRITERION OF THE ADVECTION TERM
 (FOR PURE FINITE-DIFFERENCE OPTION, MIXELM=0) 
 = 0.1347    (WHEN MIN. R.F.=1)  AT K=   3, I=   2, J=  31


 TOTAL NUMBER OF POINT SOURCES/SINKS PRESENT IN THE FLOW MODEL =   240

 MAXIMUM STEPSIZE WHICH MEETS STABILITY CRITERION OF THE SINK & SOURCE TERM
 = 0.1000E+31(WHEN MIN. R.F.=1)  AT K=   0, I=   0, J=   0

 MAXIMUM STEPSIZE WHICH MEETS STABILITY CRITERION OF THE DISPERSION TERM
 = 0.7274E-02(WHEN MIN. R.F.=1)  AT K=   3, I=   2, J=  30


     1 CALLS TO GCG PACKAGE FOR TRANSPORT TIME STEP   1 IN FLOW TIME STEP  81 STRESS PERIOD   2
    12 TOTAL ITERATIONS

 NO OUTPUT CONTROL FOR STRESS PERIOD    2   TIME STEP  81
 
 SOLVING FOR HEAD 
 FLOW MODEL IS TRANSIENT
 FLOW MODEL CONTAINS CONSTANT-HEAD CELLS


 MAXIMUM STEPSIZE DURING WHICH ANY PARTICLE CANNOT MOVE MORE THAN ONE CELL
 = 0.1698    (WHEN MIN. R.F.=1)  AT K=   3, I=   2, J=  30

 MAXIMUM STEPSIZE WHICH MEETS STABILITY CRITERION OF THE ADVECTION TERM
 (FOR PURE FINITE-DIFFERENCE OPTION, MIXELM=0) 
 = 0.1347    (WHEN MIN. R.F.=1)  AT K=   3, I=   2, J=  31


 TOTAL NUMBER OF POINT SOURCES/SINKS PRESENT IN THE FLOW MODEL =   240

 MAXIMUM STEPSIZE WHICH MEETS STABILITY CRITERION OF THE SINK & SOURCE TERM
 = 0.1000E+31(WHEN MIN. R.F.=1)  AT K=   0, I=   0, J=   0

 MAXIMUM STEPSIZE WHICH MEETS STABILITY CRITERION OF THE DISPERSION TERM
 = 0.7274E-02(WHEN MIN. R.F.=1)  AT K=   3, I=   2, J=  30
     1 CALLS TO GCG PACKAGE FOR TRANSPORT TIME STEP   2 IN FLOW TIME STEP  81 STRESS PERIOD   2
    12 TOTAL ITERATIONS
 
 SOLVING FOR HEAD 
 FLOW MODEL IS TRANSIENT
 FLOW MODEL CONTAINS CONSTANT-HEAD CELLS


 MAXIMUM STEPSIZE DURING WHICH ANY PARTICLE CANNOT MOVE MORE THAN ONE CELL
 = 0.1698    (WHEN MIN. R.F.=1)  AT K=   3, I=   2, J=  30

 MAXIMUM STEPSIZE WHICH MEETS STABILITY CRITERION OF THE ADVECTION TERM
 (FOR PURE FINITE-DIFFERENCE OPTION, MIXELM=0) 
 = 0.1347    (WHEN MIN. R.F.=1)  AT K=   3, I=   2, J=  31


 TOTAL NUMBER OF POINT SOURCES/SINKS PRESENT IN THE FLOW MODEL =   240

 MAXIMUM STEPSIZE WHICH MEETS STABILITY CRITERION OF THE SINK & SOURCE TERM
 = 0.1000E+31(WHEN MIN. R.F.=1)  AT K=   0, I=   0, J=   0

 MAXIMUM STEPSIZE WHICH MEETS STABILITY CRITERION OF THE DISPERSION TERM
 = 0.7274E-02(WHEN MIN. R.F.=1)  AT K=   3, I=   2, J=  30
     1 CALLS TO GCG PACKAGE FOR TRANSPORT TIME STEP   3 IN FLOW TIME STEP  81 STRESS PERIOD   2
    12 TOTAL ITERATIONS
 
 SOLVING FOR HEAD 
 FLOW MODEL IS TRANSIENT
 FLOW MODEL CONTAINS CONSTANT-HEAD CELLS


 MAXIMUM STEPSIZE DURING WHICH ANY PARTICLE CANNOT MOVE MORE THAN ONE CELL
 = 0.1698    (WHEN MIN. R.F.=1)  AT K=   3, I=   2, J=  30

 MAXIMUM STEPSIZE WHICH MEETS STABILITY CRITERION OF THE ADVECTION TERM
 (FOR PURE FINITE-DIFFERENCE OPTION, MIXELM=0) 
 = 0.1347    (WHEN MIN. R.F.=1)  AT K=   3, I=   2, J=  31


 TOTAL NUMBER OF POINT SOURCES/SINKS PRESENT IN THE FLOW MODEL =   240

 MAXIMUM STEPSIZE WHICH MEETS STABILITY CRITERION OF THE SINK & SOURCE TERM
 = 0.1000E+31(WHEN MIN. R.F.=1)  AT K=   0, I=   0, J=   0

 MAXIMUM STEPSIZE WHICH MEETS STABILITY CRITERION OF THE DISPERSION TERM
 = 0.7274E-02(WHEN MIN. R.F.=1)  AT K=   3, I=   2, J=  30
     1 CALLS TO GCG PACKAGE FOR TRANSPORT TIME STEP   4 IN FLOW TIME STEP  81 STRESS PERIOD   2
    12 TOTAL ITERATIONS
 
 SOLVING FOR HEAD 
 FLOW MODEL IS TRANSIENT
 FLOW MODEL CONTAINS CONSTANT-HEAD CELLS


 MAXIMUM STEPSIZE DURING WHICH ANY PARTICLE CANNOT MOVE MORE THAN ONE CELL
 = 0.1698    (WHEN MIN. R.F.=1)  AT K=   3, I=   2, J=  30

 MAXIMUM STEPSIZE WHICH MEETS STABILITY CRITERION OF THE ADVECTION TERM
 (FOR PURE FINITE-DIFFERENCE OPTION, MIXELM=0) 
 = 0.1347    (WHEN MIN. R.F.=1)  AT K=   3, I=   2, J=  31


 TOTAL NUMBER OF POINT SOURCES/SINKS PRESENT IN THE FLOW MODEL =   240

 MAXIMUM STEPSIZE WHICH MEETS STABILITY CRITERION OF THE SINK & SOURCE TERM
 = 0.1000E+31(WHEN MIN. R.F.=1)  AT K=   0, I=   0, J=   0

 MAXIMUM STEPSIZE WHICH MEETS STABILITY CRITERION OF THE DISPERSION TERM
 = 0.7274E-02(WHEN MIN. R.F.=1)  AT K=   3, I=   2, J=  30
     1 CALLS TO GCG PACKAGE FOR TRANSPORT TIME STEP   5 IN FLOW TIME STEP  81 STRESS PERIOD   2
    12 TOTAL ITERATIONS
 
 SOLVING FOR HEAD 
 FLOW MODEL IS TRANSIENT
 FLOW MODEL CONTAINS CONSTANT-HEAD CELLS


 MAXIMUM STEPSIZE DURING WHICH ANY PARTICLE CANNOT MOVE MORE THAN ONE CELL
 = 0.1698    (WHEN MIN. R.F.=1)  AT K=   3, I=   2, J=  30

 MAXIMUM STEPSIZE WHICH MEETS STABILITY CRITERION OF THE ADVECTION TERM
 (FOR PURE FINITE-DIFFERENCE OPTION, MIXELM=0) 
 = 0.1347    (WHEN MIN. R.F.=1)  AT K=   3, I=   2, J=  31


 TOTAL NUMBER OF POINT SOURCES/SINKS PRESENT IN THE FLOW MODEL =   240

 MAXIMUM STEPSIZE WHICH MEETS STABILITY CRITERION OF THE SINK & SOURCE TERM
 = 0.1000E+31(WHEN MIN. R.F.=1)  AT K=   0, I=   0, J=   0

 MAXIMUM STEPSIZE WHICH MEETS STABILITY CRITERION OF THE DISPERSION TERM
 = 0.7274E-02(WHEN MIN. R.F.=1)  AT K=   3, I=   2, J=  30
     1 CALLS TO GCG PACKAGE FOR TRANSPORT TIME STEP   6 IN FLOW TIME STEP  81 STRESS PERIOD   2
    12 TOTAL ITERATIONS
 
 SOLVING FOR HEAD 
 FLOW MODEL IS TRANSIENT
 FLOW MODEL CONTAINS CONSTANT-HEAD CELLS


 MAXIMUM STEPSIZE DURING WHICH ANY PARTICLE CANNOT MOVE MORE THAN ONE CELL
 = 0.1698    (WHEN MIN. R.F.=1)  AT K=   3, I=   2, J=  30

 MAXIMUM STEPSIZE WHICH MEETS STABILITY CRITERION OF THE ADVECTION TERM
 (FOR PURE FINITE-DIFFERENCE OPTION, MIXELM=0) 
 = 0.1347    (WHEN MIN. R.F.=1)  AT K=   3, I=   2, J=  31


 TOTAL NUMBER OF POINT SOURCES/SINKS PRESENT IN THE FLOW MODEL =   240

 MAXIMUM STEPSIZE WHICH MEETS STABILITY CRITERION OF THE SINK & SOURCE TERM
 = 0.1000E+31(WHEN MIN. R.F.=1)  AT K=   0, I=   0, J=   0

 MAXIMUM STEPSIZE WHICH MEETS STABILITY CRITERION OF THE DISPERSION TERM
 = 0.7274E-02(WHEN MIN. R.F.=1)  AT K=   3, I=   2, J=  30
     1 CALLS TO GCG PACKAGE FOR TRANSPORT TIME STEP   7 IN FLOW TIME STEP  81 STRESS PERIOD   2
    12 TOTAL ITERATIONS
 
 SOLVING FOR HEAD 
 FLOW MODEL IS TRANSIENT
 FLOW MODEL CONTAINS CONSTANT-HEAD CELLS


 MAXIMUM STEPSIZE DURING WHICH ANY PARTICLE CANNOT MOVE MORE THAN ONE CELL
 = 0.1698    (WHEN MIN. R.F.=1)  AT K=   3, I=   2, J=  30

 MAXIMUM STEPSIZE WHICH MEETS STABILITY CRITERION OF THE ADVECTION TERM
 (FOR PURE FINITE-DIFFERENCE OPTION, MIXELM=0) 
 = 0.1347    (WHEN MIN. R.F.=1)  AT K=   3, I=   2, J=  31


 TOTAL NUMBER OF POINT SOURCES/SINKS PRESENT IN THE FLOW MODEL =   240

 MAXIMUM STEPSIZE WHICH MEETS STABILITY CRITERION OF THE SINK & SOURCE TERM
 = 0.1000E+31(WHEN MIN. R.F.=1)  AT K=   0, I=   0, J=   0

 MAXIMUM STEPSIZE WHICH MEETS STABILITY CRITERION OF THE DISPERSION TERM
 = 0.7274E-02(WHEN MIN. R.F.=1)  AT K=   3, I=   2, J=  30
     1 CALLS TO GCG PACKAGE FOR TRANSPORT TIME STEP   8 IN FLOW TIME STEP  81 STRESS PERIOD   2
    11 TOTAL ITERATIONS
  MAXIMUM CONCENTRATION CHANGES FOR EACH ITERATION:
  MAX. CHANGE LAYER,ROW,COL MAX. CHANGE LAYER,ROW,COL MAX. CHANGE LAYER,ROW,COL MAX. CHANGE LAYER,ROW,COL MAX. CHANGE LAYER,ROW,COL
 ------------------------------------------------------------------------------------------------------------------------------------
   0.5958E-03 ( 15,  1, 48)  0.6404E-04 (  9,  1, 57)  0.1665E-04 (  5,  2, 62)  0.6205E-05 (  5,  2, 59)  0.2065E-05 (  4,  2, 53)
   0.1136E-05 (  7,  1, 59)  0.3957E-06 (  3,  2, 28)  0.2538E-06 (  4,  2, 28)  0.1678E-06 (  3,  2, 28)  0.1067E-06 (  3,  2, 29)
   0.7227E-07 (  3,  2, 30)


                                          ================================================
                                                         FROM TIME =   82.000     TO    83.000    

 
 SOLVING FOR HEAD 
 FLOW MODEL IS TRANSIENT
 FLOW MODEL CONTAINS CONSTANT-HEAD CELLS


 MAXIMUM STEPSIZE DURING WHICH ANY PARTICLE CANNOT MOVE MORE THAN ONE CELL
 = 0.1698    (WHEN MIN. R.F.=1)  AT K=   3, I=   2, J=  30

 MAXIMUM STEPSIZE WHICH MEETS STABILITY CRITERION OF THE ADVECTION TERM
 (FOR PURE FINITE-DIFFERENCE OPTION, MIXELM=0) 
 = 0.1347    (WHEN MIN. R.F.=1)  AT K=   3, I=   2, J=  31


 TOTAL NUMBER OF POINT SOURCES/SINKS PRESENT IN THE FLOW MODEL =   240

 MAXIMUM STEPSIZE WHICH MEETS STABILITY CRITERION OF THE SINK & SOURCE TERM
 = 0.1000E+31(WHEN MIN. R.F.=1)  AT K=   0, I=   0, J=   0

 MAXIMUM STEPSIZE WHICH MEETS STABILITY CRITERION OF THE DISPERSION TERM
 = 0.7274E-02(WHEN MIN. R.F.=1)  AT K=   3, I=   2, J=  30


     1 CALLS TO GCG PACKAGE FOR TRANSPORT TIME STEP   1 IN FLOW TIME STEP  82 STRESS PERIOD   2
    12 TOTAL ITERATIONS

 NO OUTPUT CONTROL FOR STRESS PERIOD    2   TIME STEP  82
 
 SOLVING FOR HEAD 
 FLOW MODEL IS TRANSIENT
 FLOW MODEL CONTAINS CONSTANT-HEAD CELLS


 MAXIMUM STEPSIZE DURING WHICH ANY PARTICLE CANNOT MOVE MORE THAN ONE CELL
 = 0.1698    (WHEN MIN. R.F.=1)  AT K=   3, I=   2, J=  30

 MAXIMUM STEPSIZE WHICH MEETS STABILITY CRITERION OF THE ADVECTION TERM
 (FOR PURE FINITE-DIFFERENCE OPTION, MIXELM=0) 
 = 0.1347    (WHEN MIN. R.F.=1)  AT K=   3, I=   2, J=  31


 TOTAL NUMBER OF POINT SOURCES/SINKS PRESENT IN THE FLOW MODEL =   240

 MAXIMUM STEPSIZE WHICH MEETS STABILITY CRITERION OF THE SINK & SOURCE TERM
 = 0.1000E+31(WHEN MIN. R.F.=1)  AT K=   0, I=   0, J=   0

 MAXIMUM STEPSIZE WHICH MEETS STABILITY CRITERION OF THE DISPERSION TERM
 = 0.7274E-02(WHEN MIN. R.F.=1)  AT K=   3, I=   2, J=  30
     1 CALLS TO GCG PACKAGE FOR TRANSPORT TIME STEP   2 IN FLOW TIME STEP  82 STRESS PERIOD   2
    12 TOTAL ITERATIONS
 
 SOLVING FOR HEAD 
 FLOW MODEL IS TRANSIENT
 FLOW MODEL CONTAINS CONSTANT-HEAD CELLS


 MAXIMUM STEPSIZE DURING WHICH ANY PARTICLE CANNOT MOVE MORE THAN ONE CELL
 = 0.1698    (WHEN MIN. R.F.=1)  AT K=   3, I=   2, J=  30

 MAXIMUM STEPSIZE WHICH MEETS STABILITY CRITERION OF THE ADVECTION TERM
 (FOR PURE FINITE-DIFFERENCE OPTION, MIXELM=0) 
 = 0.1347    (WHEN MIN. R.F.=1)  AT K=   3, I=   2, J=  31


 TOTAL NUMBER OF POINT SOURCES/SINKS PRESENT IN THE FLOW MODEL =   240

 MAXIMUM STEPSIZE WHICH MEETS STABILITY CRITERION OF THE SINK & SOURCE TERM
 = 0.1000E+31(WHEN MIN. R.F.=1)  AT K=   0, I=   0, J=   0

 MAXIMUM STEPSIZE WHICH MEETS STABILITY CRITERION OF THE DISPERSION TERM
 = 0.7274E-02(WHEN MIN. R.F.=1)  AT K=   3, I=   2, J=  30
     1 CALLS TO GCG PACKAGE FOR TRANSPORT TIME STEP   3 IN FLOW TIME STEP  82 STRESS PERIOD   2
    12 TOTAL ITERATIONS
 
 SOLVING FOR HEAD 
 FLOW MODEL IS TRANSIENT
 FLOW MODEL CONTAINS CONSTANT-HEAD CELLS


 MAXIMUM STEPSIZE DURING WHICH ANY PARTICLE CANNOT MOVE MORE THAN ONE CELL
 = 0.1698    (WHEN MIN. R.F.=1)  AT K=   3, I=   2, J=  30

 MAXIMUM STEPSIZE WHICH MEETS STABILITY CRITERION OF THE ADVECTION TERM
 (FOR PURE FINITE-DIFFERENCE OPTION, MIXELM=0) 
 = 0.1347    (WHEN MIN. R.F.=1)  AT K=   3, I=   2, J=  31


 TOTAL NUMBER OF POINT SOURCES/SINKS PRESENT IN THE FLOW MODEL =   240

 MAXIMUM STEPSIZE WHICH MEETS STABILITY CRITERION OF THE SINK & SOURCE TERM
 = 0.1000E+31(WHEN MIN. R.F.=1)  AT K=   0, I=   0, J=   0

 MAXIMUM STEPSIZE WHICH MEETS STABILITY CRITERION OF THE DISPERSION TERM
 = 0.7274E-02(WHEN MIN. R.F.=1)  AT K=   3, I=   2, J=  30
     1 CALLS TO GCG PACKAGE FOR TRANSPORT TIME STEP   4 IN FLOW TIME STEP  82 STRESS PERIOD   2
    12 TOTAL ITERATIONS
 
 SOLVING FOR HEAD 
 FLOW MODEL IS TRANSIENT
 FLOW MODEL CONTAINS CONSTANT-HEAD CELLS


 MAXIMUM STEPSIZE DURING WHICH ANY PARTICLE CANNOT MOVE MORE THAN ONE CELL
 = 0.1698    (WHEN MIN. R.F.=1)  AT K=   3, I=   2, J=  30

 MAXIMUM STEPSIZE WHICH MEETS STABILITY CRITERION OF THE ADVECTION TERM
 (FOR PURE FINITE-DIFFERENCE OPTION, MIXELM=0) 
 = 0.1347    (WHEN MIN. R.F.=1)  AT K=   3, I=   2, J=  31


 TOTAL NUMBER OF POINT SOURCES/SINKS PRESENT IN THE FLOW MODEL =   240

 MAXIMUM STEPSIZE WHICH MEETS STABILITY CRITERION OF THE SINK & SOURCE TERM
 = 0.1000E+31(WHEN MIN. R.F.=1)  AT K=   0, I=   0, J=   0

 MAXIMUM STEPSIZE WHICH MEETS STABILITY CRITERION OF THE DISPERSION TERM
 = 0.7274E-02(WHEN MIN. R.F.=1)  AT K=   3, I=   2, J=  30
     1 CALLS TO GCG PACKAGE FOR TRANSPORT TIME STEP   5 IN FLOW TIME STEP  82 STRESS PERIOD   2
    12 TOTAL ITERATIONS
 
 SOLVING FOR HEAD 
 FLOW MODEL IS TRANSIENT
 FLOW MODEL CONTAINS CONSTANT-HEAD CELLS


 MAXIMUM STEPSIZE DURING WHICH ANY PARTICLE CANNOT MOVE MORE THAN ONE CELL
 = 0.1698    (WHEN MIN. R.F.=1)  AT K=   3, I=   2, J=  30

 MAXIMUM STEPSIZE WHICH MEETS STABILITY CRITERION OF THE ADVECTION TERM
 (FOR PURE FINITE-DIFFERENCE OPTION, MIXELM=0) 
 = 0.1347    (WHEN MIN. R.F.=1)  AT K=   3, I=   2, J=  31


 TOTAL NUMBER OF POINT SOURCES/SINKS PRESENT IN THE FLOW MODEL =   240

 MAXIMUM STEPSIZE WHICH MEETS STABILITY CRITERION OF THE SINK & SOURCE TERM
 = 0.1000E+31(WHEN MIN. R.F.=1)  AT K=   0, I=   0, J=   0

 MAXIMUM STEPSIZE WHICH MEETS STABILITY CRITERION OF THE DISPERSION TERM
 = 0.7274E-02(WHEN MIN. R.F.=1)  AT K=   3, I=   2, J=  30
     1 CALLS TO GCG PACKAGE FOR TRANSPORT TIME STEP   6 IN FLOW TIME STEP  82 STRESS PERIOD   2
    12 TOTAL ITERATIONS
 
 SOLVING FOR HEAD 
 FLOW MODEL IS TRANSIENT
 FLOW MODEL CONTAINS CONSTANT-HEAD CELLS


 MAXIMUM STEPSIZE DURING WHICH ANY PARTICLE CANNOT MOVE MORE THAN ONE CELL
 = 0.1698    (WHEN MIN. R.F.=1)  AT K=   3, I=   2, J=  30

 MAXIMUM STEPSIZE WHICH MEETS STABILITY CRITERION OF THE ADVECTION TERM
 (FOR PURE FINITE-DIFFERENCE OPTION, MIXELM=0) 
 = 0.1347    (WHEN MIN. R.F.=1)  AT K=   3, I=   2, J=  31


 TOTAL NUMBER OF POINT SOURCES/SINKS PRESENT IN THE FLOW MODEL =   240

 MAXIMUM STEPSIZE WHICH MEETS STABILITY CRITERION OF THE SINK & SOURCE TERM
 = 0.1000E+31(WHEN MIN. R.F.=1)  AT K=   0, I=   0, J=   0

 MAXIMUM STEPSIZE WHICH MEETS STABILITY CRITERION OF THE DISPERSION TERM
 = 0.7274E-02(WHEN MIN. R.F.=1)  AT K=   3, I=   2, J=  30
     1 CALLS TO GCG PACKAGE FOR TRANSPORT TIME STEP   7 IN FLOW TIME STEP  82 STRESS PERIOD   2
    12 TOTAL ITERATIONS
 
 SOLVING FOR HEAD 
 FLOW MODEL IS TRANSIENT
 FLOW MODEL CONTAINS CONSTANT-HEAD CELLS


 MAXIMUM STEPSIZE DURING WHICH ANY PARTICLE CANNOT MOVE MORE THAN ONE CELL
 = 0.1698    (WHEN MIN. R.F.=1)  AT K=   3, I=   2, J=  30

 MAXIMUM STEPSIZE WHICH MEETS STABILITY CRITERION OF THE ADVECTION TERM
 (FOR PURE FINITE-DIFFERENCE OPTION, MIXELM=0) 
 = 0.1347    (WHEN MIN. R.F.=1)  AT K=   3, I=   2, J=  31


 TOTAL NUMBER OF POINT SOURCES/SINKS PRESENT IN THE FLOW MODEL =   240

 MAXIMUM STEPSIZE WHICH MEETS STABILITY CRITERION OF THE SINK & SOURCE TERM
 = 0.1000E+31(WHEN MIN. R.F.=1)  AT K=   0, I=   0, J=   0

 MAXIMUM STEPSIZE WHICH MEETS STABILITY CRITERION OF THE DISPERSION TERM
 = 0.7274E-02(WHEN MIN. R.F.=1)  AT K=   3, I=   2, J=  30
     1 CALLS TO GCG PACKAGE FOR TRANSPORT TIME STEP   8 IN FLOW TIME STEP  82 STRESS PERIOD   2
    10 TOTAL ITERATIONS
  MAXIMUM CONCENTRATION CHANGES FOR EACH ITERATION:
  MAX. CHANGE LAYER,ROW,COL MAX. CHANGE LAYER,ROW,COL MAX. CHANGE LAYER,ROW,COL MAX. CHANGE LAYER,ROW,COL MAX. CHANGE LAYER,ROW,COL
 ------------------------------------------------------------------------------------------------------------------------------------
   0.5962E-03 ( 15,  1, 48)  0.6227E-04 (  9,  1, 57)  0.1623E-04 (  5,  2, 62)  0.6049E-05 (  5,  2, 59)  0.1995E-05 (  4,  2, 53)
   0.1105E-05 (  7,  1, 59)  0.3359E-06 (  5,  1, 62)  0.2286E-06 (  7,  1, 59)  0.1348E-06 (  3,  3, 28)  0.8995E-07 (  2,  2, 27)


                                          ================================================
                                                         FROM TIME =   83.000     TO    84.000    

 
 SOLVING FOR HEAD 
 FLOW MODEL IS TRANSIENT
 FLOW MODEL CONTAINS CONSTANT-HEAD CELLS


 MAXIMUM STEPSIZE DURING WHICH ANY PARTICLE CANNOT MOVE MORE THAN ONE CELL
 = 0.1698    (WHEN MIN. R.F.=1)  AT K=   3, I=   2, J=  30

 MAXIMUM STEPSIZE WHICH MEETS STABILITY CRITERION OF THE ADVECTION TERM
 (FOR PURE FINITE-DIFFERENCE OPTION, MIXELM=0) 
 = 0.1347    (WHEN MIN. R.F.=1)  AT K=   3, I=   2, J=  31


 TOTAL NUMBER OF POINT SOURCES/SINKS PRESENT IN THE FLOW MODEL =   240

 MAXIMUM STEPSIZE WHICH MEETS STABILITY CRITERION OF THE SINK & SOURCE TERM
 = 0.1000E+31(WHEN MIN. R.F.=1)  AT K=   0, I=   0, J=   0

 MAXIMUM STEPSIZE WHICH MEETS STABILITY CRITERION OF THE DISPERSION TERM
 = 0.7274E-02(WHEN MIN. R.F.=1)  AT K=   3, I=   2, J=  30


     1 CALLS TO GCG PACKAGE FOR TRANSPORT TIME STEP   1 IN FLOW TIME STEP  83 STRESS PERIOD   2
    12 TOTAL ITERATIONS

 NO OUTPUT CONTROL FOR STRESS PERIOD    2   TIME STEP  83
 
 SOLVING FOR HEAD 
 FLOW MODEL IS TRANSIENT
 FLOW MODEL CONTAINS CONSTANT-HEAD CELLS


 MAXIMUM STEPSIZE DURING WHICH ANY PARTICLE CANNOT MOVE MORE THAN ONE CELL
 = 0.1698    (WHEN MIN. R.F.=1)  AT K=   3, I=   2, J=  30

 MAXIMUM STEPSIZE WHICH MEETS STABILITY CRITERION OF THE ADVECTION TERM
 (FOR PURE FINITE-DIFFERENCE OPTION, MIXELM=0) 
 = 0.1347    (WHEN MIN. R.F.=1)  AT K=   3, I=   2, J=  31


 TOTAL NUMBER OF POINT SOURCES/SINKS PRESENT IN THE FLOW MODEL =   240

 MAXIMUM STEPSIZE WHICH MEETS STABILITY CRITERION OF THE SINK & SOURCE TERM
 = 0.1000E+31(WHEN MIN. R.F.=1)  AT K=   0, I=   0, J=   0

 MAXIMUM STEPSIZE WHICH MEETS STABILITY CRITERION OF THE DISPERSION TERM
 = 0.7274E-02(WHEN MIN. R.F.=1)  AT K=   3, I=   2, J=  30
     1 CALLS TO GCG PACKAGE FOR TRANSPORT TIME STEP   2 IN FLOW TIME STEP  83 STRESS PERIOD   2
    12 TOTAL ITERATIONS
 
 SOLVING FOR HEAD 
 FLOW MODEL IS TRANSIENT
 FLOW MODEL CONTAINS CONSTANT-HEAD CELLS


 MAXIMUM STEPSIZE DURING WHICH ANY PARTICLE CANNOT MOVE MORE THAN ONE CELL
 = 0.1698    (WHEN MIN. R.F.=1)  AT K=   3, I=   2, J=  30

 MAXIMUM STEPSIZE WHICH MEETS STABILITY CRITERION OF THE ADVECTION TERM
 (FOR PURE FINITE-DIFFERENCE OPTION, MIXELM=0) 
 = 0.1347    (WHEN MIN. R.F.=1)  AT K=   3, I=   2, J=  31


 TOTAL NUMBER OF POINT SOURCES/SINKS PRESENT IN THE FLOW MODEL =   240

 MAXIMUM STEPSIZE WHICH MEETS STABILITY CRITERION OF THE SINK & SOURCE TERM
 = 0.1000E+31(WHEN MIN. R.F.=1)  AT K=   0, I=   0, J=   0

 MAXIMUM STEPSIZE WHICH MEETS STABILITY CRITERION OF THE DISPERSION TERM
 = 0.7274E-02(WHEN MIN. R.F.=1)  AT K=   3, I=   2, J=  30
     1 CALLS TO GCG PACKAGE FOR TRANSPORT TIME STEP   3 IN FLOW TIME STEP  83 STRESS PERIOD   2
    12 TOTAL ITERATIONS
 
 SOLVING FOR HEAD 
 FLOW MODEL IS TRANSIENT
 FLOW MODEL CONTAINS CONSTANT-HEAD CELLS


 MAXIMUM STEPSIZE DURING WHICH ANY PARTICLE CANNOT MOVE MORE THAN ONE CELL
 = 0.1698    (WHEN MIN. R.F.=1)  AT K=   3, I=   2, J=  30

 MAXIMUM STEPSIZE WHICH MEETS STABILITY CRITERION OF THE ADVECTION TERM
 (FOR PURE FINITE-DIFFERENCE OPTION, MIXELM=0) 
 = 0.1347    (WHEN MIN. R.F.=1)  AT K=   3, I=   2, J=  31


 TOTAL NUMBER OF POINT SOURCES/SINKS PRESENT IN THE FLOW MODEL =   240

 MAXIMUM STEPSIZE WHICH MEETS STABILITY CRITERION OF THE SINK & SOURCE TERM
 = 0.1000E+31(WHEN MIN. R.F.=1)  AT K=   0, I=   0, J=   0

 MAXIMUM STEPSIZE WHICH MEETS STABILITY CRITERION OF THE DISPERSION TERM
 = 0.7274E-02(WHEN MIN. R.F.=1)  AT K=   3, I=   2, J=  30
     1 CALLS TO GCG PACKAGE FOR TRANSPORT TIME STEP   4 IN FLOW TIME STEP  83 STRESS PERIOD   2
    11 TOTAL ITERATIONS
 
 SOLVING FOR HEAD 
 FLOW MODEL IS TRANSIENT
 FLOW MODEL CONTAINS CONSTANT-HEAD CELLS


 MAXIMUM STEPSIZE DURING WHICH ANY PARTICLE CANNOT MOVE MORE THAN ONE CELL
 = 0.1698    (WHEN MIN. R.F.=1)  AT K=   3, I=   2, J=  30

 MAXIMUM STEPSIZE WHICH MEETS STABILITY CRITERION OF THE ADVECTION TERM
 (FOR PURE FINITE-DIFFERENCE OPTION, MIXELM=0) 
 = 0.1347    (WHEN MIN. R.F.=1)  AT K=   3, I=   2, J=  31


 TOTAL NUMBER OF POINT SOURCES/SINKS PRESENT IN THE FLOW MODEL =   240

 MAXIMUM STEPSIZE WHICH MEETS STABILITY CRITERION OF THE SINK & SOURCE TERM
 = 0.1000E+31(WHEN MIN. R.F.=1)  AT K=   0, I=   0, J=   0

 MAXIMUM STEPSIZE WHICH MEETS STABILITY CRITERION OF THE DISPERSION TERM
 = 0.7274E-02(WHEN MIN. R.F.=1)  AT K=   3, I=   2, J=  30
     1 CALLS TO GCG PACKAGE FOR TRANSPORT TIME STEP   5 IN FLOW TIME STEP  83 STRESS PERIOD   2
    12 TOTAL ITERATIONS
 
 SOLVING FOR HEAD 
 FLOW MODEL IS TRANSIENT
 FLOW MODEL CONTAINS CONSTANT-HEAD CELLS


 MAXIMUM STEPSIZE DURING WHICH ANY PARTICLE CANNOT MOVE MORE THAN ONE CELL
 = 0.1698    (WHEN MIN. R.F.=1)  AT K=   3, I=   2, J=  30

 MAXIMUM STEPSIZE WHICH MEETS STABILITY CRITERION OF THE ADVECTION TERM
 (FOR PURE FINITE-DIFFERENCE OPTION, MIXELM=0) 
 = 0.1347    (WHEN MIN. R.F.=1)  AT K=   3, I=   2, J=  31


 TOTAL NUMBER OF POINT SOURCES/SINKS PRESENT IN THE FLOW MODEL =   240

 MAXIMUM STEPSIZE WHICH MEETS STABILITY CRITERION OF THE SINK & SOURCE TERM
 = 0.1000E+31(WHEN MIN. R.F.=1)  AT K=   0, I=   0, J=   0

 MAXIMUM STEPSIZE WHICH MEETS STABILITY CRITERION OF THE DISPERSION TERM
 = 0.7274E-02(WHEN MIN. R.F.=1)  AT K=   3, I=   2, J=  30
     1 CALLS TO GCG PACKAGE FOR TRANSPORT TIME STEP   6 IN FLOW TIME STEP  83 STRESS PERIOD   2
    11 TOTAL ITERATIONS
 
 SOLVING FOR HEAD 
 FLOW MODEL IS TRANSIENT
 FLOW MODEL CONTAINS CONSTANT-HEAD CELLS


 MAXIMUM STEPSIZE DURING WHICH ANY PARTICLE CANNOT MOVE MORE THAN ONE CELL
 = 0.1698    (WHEN MIN. R.F.=1)  AT K=   3, I=   2, J=  30

 MAXIMUM STEPSIZE WHICH MEETS STABILITY CRITERION OF THE ADVECTION TERM
 (FOR PURE FINITE-DIFFERENCE OPTION, MIXELM=0) 
 = 0.1347    (WHEN MIN. R.F.=1)  AT K=   3, I=   2, J=  31


 TOTAL NUMBER OF POINT SOURCES/SINKS PRESENT IN THE FLOW MODEL =   240

 MAXIMUM STEPSIZE WHICH MEETS STABILITY CRITERION OF THE SINK & SOURCE TERM
 = 0.1000E+31(WHEN MIN. R.F.=1)  AT K=   0, I=   0, J=   0

 MAXIMUM STEPSIZE WHICH MEETS STABILITY CRITERION OF THE DISPERSION TERM
 = 0.7274E-02(WHEN MIN. R.F.=1)  AT K=   3, I=   2, J=  30
     1 CALLS TO GCG PACKAGE FOR TRANSPORT TIME STEP   7 IN FLOW TIME STEP  83 STRESS PERIOD   2
    11 TOTAL ITERATIONS
 
 SOLVING FOR HEAD 
 FLOW MODEL IS TRANSIENT
 FLOW MODEL CONTAINS CONSTANT-HEAD CELLS


 MAXIMUM STEPSIZE DURING WHICH ANY PARTICLE CANNOT MOVE MORE THAN ONE CELL
 = 0.1698    (WHEN MIN. R.F.=1)  AT K=   3, I=   2, J=  30

 MAXIMUM STEPSIZE WHICH MEETS STABILITY CRITERION OF THE ADVECTION TERM
 (FOR PURE FINITE-DIFFERENCE OPTION, MIXELM=0) 
 = 0.1347    (WHEN MIN. R.F.=1)  AT K=   3, I=   2, J=  31


 TOTAL NUMBER OF POINT SOURCES/SINKS PRESENT IN THE FLOW MODEL =   240

 MAXIMUM STEPSIZE WHICH MEETS STABILITY CRITERION OF THE SINK & SOURCE TERM
 = 0.1000E+31(WHEN MIN. R.F.=1)  AT K=   0, I=   0, J=   0

 MAXIMUM STEPSIZE WHICH MEETS STABILITY CRITERION OF THE DISPERSION TERM
 = 0.7274E-02(WHEN MIN. R.F.=1)  AT K=   3, I=   2, J=  30
     1 CALLS TO GCG PACKAGE FOR TRANSPORT TIME STEP   8 IN FLOW TIME STEP  83 STRESS PERIOD   2
    10 TOTAL ITERATIONS
  MAXIMUM CONCENTRATION CHANGES FOR EACH ITERATION:
  MAX. CHANGE LAYER,ROW,COL MAX. CHANGE LAYER,ROW,COL MAX. CHANGE LAYER,ROW,COL MAX. CHANGE LAYER,ROW,COL MAX. CHANGE LAYER,ROW,COL
 ------------------------------------------------------------------------------------------------------------------------------------
   0.5963E-03 ( 15,  1, 48)  0.6056E-04 (  9,  1, 57)  0.1581E-04 (  5,  2, 62)  0.5900E-05 (  5,  2, 59)  0.1926E-05 (  4,  2, 53)
   0.1026E-05 (  7,  1, 59)  0.3664E-06 (  3,  2, 28)  0.2313E-06 (  7,  1, 59)  0.1366E-06 (  4,  2, 29)  0.9110E-07 (  3,  2, 29)


                                          ================================================
                                                         FROM TIME =   84.000     TO    85.000    

 
 SOLVING FOR HEAD 
 FLOW MODEL IS TRANSIENT
 FLOW MODEL CONTAINS CONSTANT-HEAD CELLS


 MAXIMUM STEPSIZE DURING WHICH ANY PARTICLE CANNOT MOVE MORE THAN ONE CELL
 = 0.1698    (WHEN MIN. R.F.=1)  AT K=   3, I=   2, J=  30

 MAXIMUM STEPSIZE WHICH MEETS STABILITY CRITERION OF THE ADVECTION TERM
 (FOR PURE FINITE-DIFFERENCE OPTION, MIXELM=0) 
 = 0.1347    (WHEN MIN. R.F.=1)  AT K=   3, I=   2, J=  31


 TOTAL NUMBER OF POINT SOURCES/SINKS PRESENT IN THE FLOW MODEL =   240

 MAXIMUM STEPSIZE WHICH MEETS STABILITY CRITERION OF THE SINK & SOURCE TERM
 = 0.1000E+31(WHEN MIN. R.F.=1)  AT K=   0, I=   0, J=   0

 MAXIMUM STEPSIZE WHICH MEETS STABILITY CRITERION OF THE DISPERSION TERM
 = 0.7274E-02(WHEN MIN. R.F.=1)  AT K=   3, I=   2, J=  30


     1 CALLS TO GCG PACKAGE FOR TRANSPORT TIME STEP   1 IN FLOW TIME STEP  84 STRESS PERIOD   2
    11 TOTAL ITERATIONS

 NO OUTPUT CONTROL FOR STRESS PERIOD    2   TIME STEP  84
 
 SOLVING FOR HEAD 
 FLOW MODEL IS TRANSIENT
 FLOW MODEL CONTAINS CONSTANT-HEAD CELLS


 MAXIMUM STEPSIZE DURING WHICH ANY PARTICLE CANNOT MOVE MORE THAN ONE CELL
 = 0.1698    (WHEN MIN. R.F.=1)  AT K=   3, I=   2, J=  30

 MAXIMUM STEPSIZE WHICH MEETS STABILITY CRITERION OF THE ADVECTION TERM
 (FOR PURE FINITE-DIFFERENCE OPTION, MIXELM=0) 
 = 0.1347    (WHEN MIN. R.F.=1)  AT K=   3, I=   2, J=  31


 TOTAL NUMBER OF POINT SOURCES/SINKS PRESENT IN THE FLOW MODEL =   240

 MAXIMUM STEPSIZE WHICH MEETS STABILITY CRITERION OF THE SINK & SOURCE TERM
 = 0.1000E+31(WHEN MIN. R.F.=1)  AT K=   0, I=   0, J=   0

 MAXIMUM STEPSIZE WHICH MEETS STABILITY CRITERION OF THE DISPERSION TERM
 = 0.7274E-02(WHEN MIN. R.F.=1)  AT K=   3, I=   2, J=  30
     1 CALLS TO GCG PACKAGE FOR TRANSPORT TIME STEP   2 IN FLOW TIME STEP  84 STRESS PERIOD   2
    11 TOTAL ITERATIONS
 
 SOLVING FOR HEAD 
 FLOW MODEL IS TRANSIENT
 FLOW MODEL CONTAINS CONSTANT-HEAD CELLS


 MAXIMUM STEPSIZE DURING WHICH ANY PARTICLE CANNOT MOVE MORE THAN ONE CELL
 = 0.1698    (WHEN MIN. R.F.=1)  AT K=   3, I=   2, J=  30

 MAXIMUM STEPSIZE WHICH MEETS STABILITY CRITERION OF THE ADVECTION TERM
 (FOR PURE FINITE-DIFFERENCE OPTION, MIXELM=0) 
 = 0.1347    (WHEN MIN. R.F.=1)  AT K=   3, I=   2, J=  31


 TOTAL NUMBER OF POINT SOURCES/SINKS PRESENT IN THE FLOW MODEL =   240

 MAXIMUM STEPSIZE WHICH MEETS STABILITY CRITERION OF THE SINK & SOURCE TERM
 = 0.1000E+31(WHEN MIN. R.F.=1)  AT K=   0, I=   0, J=   0

 MAXIMUM STEPSIZE WHICH MEETS STABILITY CRITERION OF THE DISPERSION TERM
 = 0.7274E-02(WHEN MIN. R.F.=1)  AT K=   3, I=   2, J=  30
     1 CALLS TO GCG PACKAGE FOR TRANSPORT TIME STEP   3 IN FLOW TIME STEP  84 STRESS PERIOD   2
    11 TOTAL ITERATIONS
 
 SOLVING FOR HEAD 
 FLOW MODEL IS TRANSIENT
 FLOW MODEL CONTAINS CONSTANT-HEAD CELLS


 MAXIMUM STEPSIZE DURING WHICH ANY PARTICLE CANNOT MOVE MORE THAN ONE CELL
 = 0.1698    (WHEN MIN. R.F.=1)  AT K=   3, I=   2, J=  30

 MAXIMUM STEPSIZE WHICH MEETS STABILITY CRITERION OF THE ADVECTION TERM
 (FOR PURE FINITE-DIFFERENCE OPTION, MIXELM=0) 
 = 0.1347    (WHEN MIN. R.F.=1)  AT K=   3, I=   2, J=  31


 TOTAL NUMBER OF POINT SOURCES/SINKS PRESENT IN THE FLOW MODEL =   240

 MAXIMUM STEPSIZE WHICH MEETS STABILITY CRITERION OF THE SINK & SOURCE TERM
 = 0.1000E+31(WHEN MIN. R.F.=1)  AT K=   0, I=   0, J=   0

 MAXIMUM STEPSIZE WHICH MEETS STABILITY CRITERION OF THE DISPERSION TERM
 = 0.7274E-02(WHEN MIN. R.F.=1)  AT K=   3, I=   2, J=  30
     1 CALLS TO GCG PACKAGE FOR TRANSPORT TIME STEP   4 IN FLOW TIME STEP  84 STRESS PERIOD   2
    12 TOTAL ITERATIONS
 
 SOLVING FOR HEAD 
 FLOW MODEL IS TRANSIENT
 FLOW MODEL CONTAINS CONSTANT-HEAD CELLS


 MAXIMUM STEPSIZE DURING WHICH ANY PARTICLE CANNOT MOVE MORE THAN ONE CELL
 = 0.1698    (WHEN MIN. R.F.=1)  AT K=   3, I=   2, J=  30

 MAXIMUM STEPSIZE WHICH MEETS STABILITY CRITERION OF THE ADVECTION TERM
 (FOR PURE FINITE-DIFFERENCE OPTION, MIXELM=0) 
 = 0.1347    (WHEN MIN. R.F.=1)  AT K=   3, I=   2, J=  31


 TOTAL NUMBER OF POINT SOURCES/SINKS PRESENT IN THE FLOW MODEL =   240

 MAXIMUM STEPSIZE WHICH MEETS STABILITY CRITERION OF THE SINK & SOURCE TERM
 = 0.1000E+31(WHEN MIN. R.F.=1)  AT K=   0, I=   0, J=   0

 MAXIMUM STEPSIZE WHICH MEETS STABILITY CRITERION OF THE DISPERSION TERM
 = 0.7274E-02(WHEN MIN. R.F.=1)  AT K=   3, I=   2, J=  30
     1 CALLS TO GCG PACKAGE FOR TRANSPORT TIME STEP   5 IN FLOW TIME STEP  84 STRESS PERIOD   2
    11 TOTAL ITERATIONS
 
 SOLVING FOR HEAD 
 FLOW MODEL IS TRANSIENT
 FLOW MODEL CONTAINS CONSTANT-HEAD CELLS


 MAXIMUM STEPSIZE DURING WHICH ANY PARTICLE CANNOT MOVE MORE THAN ONE CELL
 = 0.1698    (WHEN MIN. R.F.=1)  AT K=   3, I=   2, J=  30

 MAXIMUM STEPSIZE WHICH MEETS STABILITY CRITERION OF THE ADVECTION TERM
 (FOR PURE FINITE-DIFFERENCE OPTION, MIXELM=0) 
 = 0.1347    (WHEN MIN. R.F.=1)  AT K=   3, I=   2, J=  31


 TOTAL NUMBER OF POINT SOURCES/SINKS PRESENT IN THE FLOW MODEL =   240

 MAXIMUM STEPSIZE WHICH MEETS STABILITY CRITERION OF THE SINK & SOURCE TERM
 = 0.1000E+31(WHEN MIN. R.F.=1)  AT K=   0, I=   0, J=   0

 MAXIMUM STEPSIZE WHICH MEETS STABILITY CRITERION OF THE DISPERSION TERM
 = 0.7274E-02(WHEN MIN. R.F.=1)  AT K=   3, I=   2, J=  30
     1 CALLS TO GCG PACKAGE FOR TRANSPORT TIME STEP   6 IN FLOW TIME STEP  84 STRESS PERIOD   2
    11 TOTAL ITERATIONS
 
 SOLVING FOR HEAD 
 FLOW MODEL IS TRANSIENT
 FLOW MODEL CONTAINS CONSTANT-HEAD CELLS


 MAXIMUM STEPSIZE DURING WHICH ANY PARTICLE CANNOT MOVE MORE THAN ONE CELL
 = 0.1698    (WHEN MIN. R.F.=1)  AT K=   3, I=   2, J=  30

 MAXIMUM STEPSIZE WHICH MEETS STABILITY CRITERION OF THE ADVECTION TERM
 (FOR PURE FINITE-DIFFERENCE OPTION, MIXELM=0) 
 = 0.1347    (WHEN MIN. R.F.=1)  AT K=   3, I=   2, J=  31


 TOTAL NUMBER OF POINT SOURCES/SINKS PRESENT IN THE FLOW MODEL =   240

 MAXIMUM STEPSIZE WHICH MEETS STABILITY CRITERION OF THE SINK & SOURCE TERM
 = 0.1000E+31(WHEN MIN. R.F.=1)  AT K=   0, I=   0, J=   0

 MAXIMUM STEPSIZE WHICH MEETS STABILITY CRITERION OF THE DISPERSION TERM
 = 0.7274E-02(WHEN MIN. R.F.=1)  AT K=   3, I=   2, J=  30
     1 CALLS TO GCG PACKAGE FOR TRANSPORT TIME STEP   7 IN FLOW TIME STEP  84 STRESS PERIOD   2
    12 TOTAL ITERATIONS
 
 SOLVING FOR HEAD 
 FLOW MODEL IS TRANSIENT
 FLOW MODEL CONTAINS CONSTANT-HEAD CELLS


 MAXIMUM STEPSIZE DURING WHICH ANY PARTICLE CANNOT MOVE MORE THAN ONE CELL
 = 0.1698    (WHEN MIN. R.F.=1)  AT K=   3, I=   2, J=  30

 MAXIMUM STEPSIZE WHICH MEETS STABILITY CRITERION OF THE ADVECTION TERM
 (FOR PURE FINITE-DIFFERENCE OPTION, MIXELM=0) 
 = 0.1347    (WHEN MIN. R.F.=1)  AT K=   3, I=   2, J=  31


 TOTAL NUMBER OF POINT SOURCES/SINKS PRESENT IN THE FLOW MODEL =   240

 MAXIMUM STEPSIZE WHICH MEETS STABILITY CRITERION OF THE SINK & SOURCE TERM
 = 0.1000E+31(WHEN MIN. R.F.=1)  AT K=   0, I=   0, J=   0

 MAXIMUM STEPSIZE WHICH MEETS STABILITY CRITERION OF THE DISPERSION TERM
 = 0.7274E-02(WHEN MIN. R.F.=1)  AT K=   3, I=   2, J=  30
     1 CALLS TO GCG PACKAGE FOR TRANSPORT TIME STEP   8 IN FLOW TIME STEP  84 STRESS PERIOD   2
    10 TOTAL ITERATIONS
  MAXIMUM CONCENTRATION CHANGES FOR EACH ITERATION:
  MAX. CHANGE LAYER,ROW,COL MAX. CHANGE LAYER,ROW,COL MAX. CHANGE LAYER,ROW,COL MAX. CHANGE LAYER,ROW,COL MAX. CHANGE LAYER,ROW,COL
 ------------------------------------------------------------------------------------------------------------------------------------
   0.5961E-03 ( 15,  1, 48)  0.5889E-04 (  9,  1, 57)  0.1541E-04 (  5,  2, 62)  0.5751E-05 (  5,  2, 59)  0.1862E-05 (  4,  2, 53)
   0.1057E-05 (  7,  1, 59)  0.3436E-06 (  5,  1, 62)  0.1990E-06 (  7,  1, 59)  0.1260E-06 (  3,  3, 28)  0.7916E-07 (  2,  2, 27)


                                          ================================================
                                                         FROM TIME =   85.000     TO    86.000    

 
 SOLVING FOR HEAD 
 FLOW MODEL IS TRANSIENT
 FLOW MODEL CONTAINS CONSTANT-HEAD CELLS


 MAXIMUM STEPSIZE DURING WHICH ANY PARTICLE CANNOT MOVE MORE THAN ONE CELL
 = 0.1698    (WHEN MIN. R.F.=1)  AT K=   3, I=   2, J=  30

 MAXIMUM STEPSIZE WHICH MEETS STABILITY CRITERION OF THE ADVECTION TERM
 (FOR PURE FINITE-DIFFERENCE OPTION, MIXELM=0) 
 = 0.1347    (WHEN MIN. R.F.=1)  AT K=   3, I=   2, J=  31


 TOTAL NUMBER OF POINT SOURCES/SINKS PRESENT IN THE FLOW MODEL =   240

 MAXIMUM STEPSIZE WHICH MEETS STABILITY CRITERION OF THE SINK & SOURCE TERM
 = 0.1000E+31(WHEN MIN. R.F.=1)  AT K=   0, I=   0, J=   0

 MAXIMUM STEPSIZE WHICH MEETS STABILITY CRITERION OF THE DISPERSION TERM
 = 0.7274E-02(WHEN MIN. R.F.=1)  AT K=   3, I=   2, J=  30


     1 CALLS TO GCG PACKAGE FOR TRANSPORT TIME STEP   1 IN FLOW TIME STEP  85 STRESS PERIOD   2
    11 TOTAL ITERATIONS

 NO OUTPUT CONTROL FOR STRESS PERIOD    2   TIME STEP  85
 
 SOLVING FOR HEAD 
 FLOW MODEL IS TRANSIENT
 FLOW MODEL CONTAINS CONSTANT-HEAD CELLS


 MAXIMUM STEPSIZE DURING WHICH ANY PARTICLE CANNOT MOVE MORE THAN ONE CELL
 = 0.1698    (WHEN MIN. R.F.=1)  AT K=   3, I=   2, J=  30

 MAXIMUM STEPSIZE WHICH MEETS STABILITY CRITERION OF THE ADVECTION TERM
 (FOR PURE FINITE-DIFFERENCE OPTION, MIXELM=0) 
 = 0.1347    (WHEN MIN. R.F.=1)  AT K=   3, I=   2, J=  31


 TOTAL NUMBER OF POINT SOURCES/SINKS PRESENT IN THE FLOW MODEL =   240

 MAXIMUM STEPSIZE WHICH MEETS STABILITY CRITERION OF THE SINK & SOURCE TERM
 = 0.1000E+31(WHEN MIN. R.F.=1)  AT K=   0, I=   0, J=   0

 MAXIMUM STEPSIZE WHICH MEETS STABILITY CRITERION OF THE DISPERSION TERM
 = 0.7274E-02(WHEN MIN. R.F.=1)  AT K=   3, I=   2, J=  30
     1 CALLS TO GCG PACKAGE FOR TRANSPORT TIME STEP   2 IN FLOW TIME STEP  85 STRESS PERIOD   2
    11 TOTAL ITERATIONS
 
 SOLVING FOR HEAD 
 FLOW MODEL IS TRANSIENT
 FLOW MODEL CONTAINS CONSTANT-HEAD CELLS


 MAXIMUM STEPSIZE DURING WHICH ANY PARTICLE CANNOT MOVE MORE THAN ONE CELL
 = 0.1698    (WHEN MIN. R.F.=1)  AT K=   3, I=   2, J=  30

 MAXIMUM STEPSIZE WHICH MEETS STABILITY CRITERION OF THE ADVECTION TERM
 (FOR PURE FINITE-DIFFERENCE OPTION, MIXELM=0) 
 = 0.1347    (WHEN MIN. R.F.=1)  AT K=   3, I=   2, J=  31


 TOTAL NUMBER OF POINT SOURCES/SINKS PRESENT IN THE FLOW MODEL =   240

 MAXIMUM STEPSIZE WHICH MEETS STABILITY CRITERION OF THE SINK & SOURCE TERM
 = 0.1000E+31(WHEN MIN. R.F.=1)  AT K=   0, I=   0, J=   0

 MAXIMUM STEPSIZE WHICH MEETS STABILITY CRITERION OF THE DISPERSION TERM
 = 0.7274E-02(WHEN MIN. R.F.=1)  AT K=   3, I=   2, J=  30
     1 CALLS TO GCG PACKAGE FOR TRANSPORT TIME STEP   3 IN FLOW TIME STEP  85 STRESS PERIOD   2
    12 TOTAL ITERATIONS
 
 SOLVING FOR HEAD 
 FLOW MODEL IS TRANSIENT
 FLOW MODEL CONTAINS CONSTANT-HEAD CELLS


 MAXIMUM STEPSIZE DURING WHICH ANY PARTICLE CANNOT MOVE MORE THAN ONE CELL
 = 0.1698    (WHEN MIN. R.F.=1)  AT K=   3, I=   2, J=  30

 MAXIMUM STEPSIZE WHICH MEETS STABILITY CRITERION OF THE ADVECTION TERM
 (FOR PURE FINITE-DIFFERENCE OPTION, MIXELM=0) 
 = 0.1347    (WHEN MIN. R.F.=1)  AT K=   3, I=   2, J=  31


 TOTAL NUMBER OF POINT SOURCES/SINKS PRESENT IN THE FLOW MODEL =   240

 MAXIMUM STEPSIZE WHICH MEETS STABILITY CRITERION OF THE SINK & SOURCE TERM
 = 0.1000E+31(WHEN MIN. R.F.=1)  AT K=   0, I=   0, J=   0

 MAXIMUM STEPSIZE WHICH MEETS STABILITY CRITERION OF THE DISPERSION TERM
 = 0.7274E-02(WHEN MIN. R.F.=1)  AT K=   3, I=   2, J=  30
     1 CALLS TO GCG PACKAGE FOR TRANSPORT TIME STEP   4 IN FLOW TIME STEP  85 STRESS PERIOD   2
    11 TOTAL ITERATIONS
 
 SOLVING FOR HEAD 
 FLOW MODEL IS TRANSIENT
 FLOW MODEL CONTAINS CONSTANT-HEAD CELLS


 MAXIMUM STEPSIZE DURING WHICH ANY PARTICLE CANNOT MOVE MORE THAN ONE CELL
 = 0.1698    (WHEN MIN. R.F.=1)  AT K=   3, I=   2, J=  30

 MAXIMUM STEPSIZE WHICH MEETS STABILITY CRITERION OF THE ADVECTION TERM
 (FOR PURE FINITE-DIFFERENCE OPTION, MIXELM=0) 
 = 0.1347    (WHEN MIN. R.F.=1)  AT K=   3, I=   2, J=  31


 TOTAL NUMBER OF POINT SOURCES/SINKS PRESENT IN THE FLOW MODEL =   240

 MAXIMUM STEPSIZE WHICH MEETS STABILITY CRITERION OF THE SINK & SOURCE TERM
 = 0.1000E+31(WHEN MIN. R.F.=1)  AT K=   0, I=   0, J=   0

 MAXIMUM STEPSIZE WHICH MEETS STABILITY CRITERION OF THE DISPERSION TERM
 = 0.7274E-02(WHEN MIN. R.F.=1)  AT K=   3, I=   2, J=  30
     1 CALLS TO GCG PACKAGE FOR TRANSPORT TIME STEP   5 IN FLOW TIME STEP  85 STRESS PERIOD   2
    11 TOTAL ITERATIONS
 
 SOLVING FOR HEAD 
 FLOW MODEL IS TRANSIENT
 FLOW MODEL CONTAINS CONSTANT-HEAD CELLS


 MAXIMUM STEPSIZE DURING WHICH ANY PARTICLE CANNOT MOVE MORE THAN ONE CELL
 = 0.1698    (WHEN MIN. R.F.=1)  AT K=   3, I=   2, J=  30

 MAXIMUM STEPSIZE WHICH MEETS STABILITY CRITERION OF THE ADVECTION TERM
 (FOR PURE FINITE-DIFFERENCE OPTION, MIXELM=0) 
 = 0.1347    (WHEN MIN. R.F.=1)  AT K=   3, I=   2, J=  31


 TOTAL NUMBER OF POINT SOURCES/SINKS PRESENT IN THE FLOW MODEL =   240

 MAXIMUM STEPSIZE WHICH MEETS STABILITY CRITERION OF THE SINK & SOURCE TERM
 = 0.1000E+31(WHEN MIN. R.F.=1)  AT K=   0, I=   0, J=   0

 MAXIMUM STEPSIZE WHICH MEETS STABILITY CRITERION OF THE DISPERSION TERM
 = 0.7274E-02(WHEN MIN. R.F.=1)  AT K=   3, I=   2, J=  30
     1 CALLS TO GCG PACKAGE FOR TRANSPORT TIME STEP   6 IN FLOW TIME STEP  85 STRESS PERIOD   2
    12 TOTAL ITERATIONS
 
 SOLVING FOR HEAD 
 FLOW MODEL IS TRANSIENT
 FLOW MODEL CONTAINS CONSTANT-HEAD CELLS


 MAXIMUM STEPSIZE DURING WHICH ANY PARTICLE CANNOT MOVE MORE THAN ONE CELL
 = 0.1698    (WHEN MIN. R.F.=1)  AT K=   3, I=   2, J=  30

 MAXIMUM STEPSIZE WHICH MEETS STABILITY CRITERION OF THE ADVECTION TERM
 (FOR PURE FINITE-DIFFERENCE OPTION, MIXELM=0) 
 = 0.1347    (WHEN MIN. R.F.=1)  AT K=   3, I=   2, J=  31


 TOTAL NUMBER OF POINT SOURCES/SINKS PRESENT IN THE FLOW MODEL =   240

 MAXIMUM STEPSIZE WHICH MEETS STABILITY CRITERION OF THE SINK & SOURCE TERM
 = 0.1000E+31(WHEN MIN. R.F.=1)  AT K=   0, I=   0, J=   0

 MAXIMUM STEPSIZE WHICH MEETS STABILITY CRITERION OF THE DISPERSION TERM
 = 0.7274E-02(WHEN MIN. R.F.=1)  AT K=   3, I=   2, J=  30
     1 CALLS TO GCG PACKAGE FOR TRANSPORT TIME STEP   7 IN FLOW TIME STEP  85 STRESS PERIOD   2
    11 TOTAL ITERATIONS
 
 SOLVING FOR HEAD 
 FLOW MODEL IS TRANSIENT
 FLOW MODEL CONTAINS CONSTANT-HEAD CELLS


 MAXIMUM STEPSIZE DURING WHICH ANY PARTICLE CANNOT MOVE MORE THAN ONE CELL
 = 0.1698    (WHEN MIN. R.F.=1)  AT K=   3, I=   2, J=  30

 MAXIMUM STEPSIZE WHICH MEETS STABILITY CRITERION OF THE ADVECTION TERM
 (FOR PURE FINITE-DIFFERENCE OPTION, MIXELM=0) 
 = 0.1347    (WHEN MIN. R.F.=1)  AT K=   3, I=   2, J=  31


 TOTAL NUMBER OF POINT SOURCES/SINKS PRESENT IN THE FLOW MODEL =   240

 MAXIMUM STEPSIZE WHICH MEETS STABILITY CRITERION OF THE SINK & SOURCE TERM
 = 0.1000E+31(WHEN MIN. R.F.=1)  AT K=   0, I=   0, J=   0

 MAXIMUM STEPSIZE WHICH MEETS STABILITY CRITERION OF THE DISPERSION TERM
 = 0.7274E-02(WHEN MIN. R.F.=1)  AT K=   3, I=   2, J=  30
     1 CALLS TO GCG PACKAGE FOR TRANSPORT TIME STEP   8 IN FLOW TIME STEP  85 STRESS PERIOD   2
    10 TOTAL ITERATIONS
  MAXIMUM CONCENTRATION CHANGES FOR EACH ITERATION:
  MAX. CHANGE LAYER,ROW,COL MAX. CHANGE LAYER,ROW,COL MAX. CHANGE LAYER,ROW,COL MAX. CHANGE LAYER,ROW,COL MAX. CHANGE LAYER,ROW,COL
 ------------------------------------------------------------------------------------------------------------------------------------
   0.5956E-03 ( 15,  1, 48)  0.5726E-04 (  9,  1, 57)  0.1503E-04 (  5,  2, 62)  0.5612E-05 (  5,  2, 59)  0.1801E-05 (  4,  2, 53)
   0.1009E-05 (  7,  1, 59)  0.3200E-06 (  5,  1, 62)  0.2152E-06 (  3,  2, 27)  0.1482E-06 (  3,  2, 28)  0.9142E-07 (  3,  2, 29)


                                          ================================================
                                                         FROM TIME =   86.000     TO    87.000    

 
 SOLVING FOR HEAD 
 FLOW MODEL IS TRANSIENT
 FLOW MODEL CONTAINS CONSTANT-HEAD CELLS


 MAXIMUM STEPSIZE DURING WHICH ANY PARTICLE CANNOT MOVE MORE THAN ONE CELL
 = 0.1698    (WHEN MIN. R.F.=1)  AT K=   3, I=   2, J=  30

 MAXIMUM STEPSIZE WHICH MEETS STABILITY CRITERION OF THE ADVECTION TERM
 (FOR PURE FINITE-DIFFERENCE OPTION, MIXELM=0) 
 = 0.1347    (WHEN MIN. R.F.=1)  AT K=   3, I=   2, J=  31


 TOTAL NUMBER OF POINT SOURCES/SINKS PRESENT IN THE FLOW MODEL =   240

 MAXIMUM STEPSIZE WHICH MEETS STABILITY CRITERION OF THE SINK & SOURCE TERM
 = 0.1000E+31(WHEN MIN. R.F.=1)  AT K=   0, I=   0, J=   0

 MAXIMUM STEPSIZE WHICH MEETS STABILITY CRITERION OF THE DISPERSION TERM
 = 0.7274E-02(WHEN MIN. R.F.=1)  AT K=   3, I=   2, J=  30


     1 CALLS TO GCG PACKAGE FOR TRANSPORT TIME STEP   1 IN FLOW TIME STEP  86 STRESS PERIOD   2
    11 TOTAL ITERATIONS

 NO OUTPUT CONTROL FOR STRESS PERIOD    2   TIME STEP  86
 
 SOLVING FOR HEAD 
 FLOW MODEL IS TRANSIENT
 FLOW MODEL CONTAINS CONSTANT-HEAD CELLS


 MAXIMUM STEPSIZE DURING WHICH ANY PARTICLE CANNOT MOVE MORE THAN ONE CELL
 = 0.1698    (WHEN MIN. R.F.=1)  AT K=   3, I=   2, J=  30

 MAXIMUM STEPSIZE WHICH MEETS STABILITY CRITERION OF THE ADVECTION TERM
 (FOR PURE FINITE-DIFFERENCE OPTION, MIXELM=0) 
 = 0.1347    (WHEN MIN. R.F.=1)  AT K=   3, I=   2, J=  31


 TOTAL NUMBER OF POINT SOURCES/SINKS PRESENT IN THE FLOW MODEL =   240

 MAXIMUM STEPSIZE WHICH MEETS STABILITY CRITERION OF THE SINK & SOURCE TERM
 = 0.1000E+31(WHEN MIN. R.F.=1)  AT K=   0, I=   0, J=   0

 MAXIMUM STEPSIZE WHICH MEETS STABILITY CRITERION OF THE DISPERSION TERM
 = 0.7274E-02(WHEN MIN. R.F.=1)  AT K=   3, I=   2, J=  30
     1 CALLS TO GCG PACKAGE FOR TRANSPORT TIME STEP   2 IN FLOW TIME STEP  86 STRESS PERIOD   2
    11 TOTAL ITERATIONS
 
 SOLVING FOR HEAD 
 FLOW MODEL IS TRANSIENT
 FLOW MODEL CONTAINS CONSTANT-HEAD CELLS


 MAXIMUM STEPSIZE DURING WHICH ANY PARTICLE CANNOT MOVE MORE THAN ONE CELL
 = 0.1698    (WHEN MIN. R.F.=1)  AT K=   3, I=   2, J=  30

 MAXIMUM STEPSIZE WHICH MEETS STABILITY CRITERION OF THE ADVECTION TERM
 (FOR PURE FINITE-DIFFERENCE OPTION, MIXELM=0) 
 = 0.1347    (WHEN MIN. R.F.=1)  AT K=   3, I=   2, J=  31


 TOTAL NUMBER OF POINT SOURCES/SINKS PRESENT IN THE FLOW MODEL =   240

 MAXIMUM STEPSIZE WHICH MEETS STABILITY CRITERION OF THE SINK & SOURCE TERM
 = 0.1000E+31(WHEN MIN. R.F.=1)  AT K=   0, I=   0, J=   0

 MAXIMUM STEPSIZE WHICH MEETS STABILITY CRITERION OF THE DISPERSION TERM
 = 0.7274E-02(WHEN MIN. R.F.=1)  AT K=   3, I=   2, J=  30
     1 CALLS TO GCG PACKAGE FOR TRANSPORT TIME STEP   3 IN FLOW TIME STEP  86 STRESS PERIOD   2
    11 TOTAL ITERATIONS
 
 SOLVING FOR HEAD 
 FLOW MODEL IS TRANSIENT
 FLOW MODEL CONTAINS CONSTANT-HEAD CELLS


 MAXIMUM STEPSIZE DURING WHICH ANY PARTICLE CANNOT MOVE MORE THAN ONE CELL
 = 0.1698    (WHEN MIN. R.F.=1)  AT K=   3, I=   2, J=  30

 MAXIMUM STEPSIZE WHICH MEETS STABILITY CRITERION OF THE ADVECTION TERM
 (FOR PURE FINITE-DIFFERENCE OPTION, MIXELM=0) 
 = 0.1347    (WHEN MIN. R.F.=1)  AT K=   3, I=   2, J=  31


 TOTAL NUMBER OF POINT SOURCES/SINKS PRESENT IN THE FLOW MODEL =   240

 MAXIMUM STEPSIZE WHICH MEETS STABILITY CRITERION OF THE SINK & SOURCE TERM
 = 0.1000E+31(WHEN MIN. R.F.=1)  AT K=   0, I=   0, J=   0

 MAXIMUM STEPSIZE WHICH MEETS STABILITY CRITERION OF THE DISPERSION TERM
 = 0.7274E-02(WHEN MIN. R.F.=1)  AT K=   3, I=   2, J=  30
     1 CALLS TO GCG PACKAGE FOR TRANSPORT TIME STEP   4 IN FLOW TIME STEP  86 STRESS PERIOD   2
    11 TOTAL ITERATIONS
 
 SOLVING FOR HEAD 
 FLOW MODEL IS TRANSIENT
 FLOW MODEL CONTAINS CONSTANT-HEAD CELLS


 MAXIMUM STEPSIZE DURING WHICH ANY PARTICLE CANNOT MOVE MORE THAN ONE CELL
 = 0.1698    (WHEN MIN. R.F.=1)  AT K=   3, I=   2, J=  30

 MAXIMUM STEPSIZE WHICH MEETS STABILITY CRITERION OF THE ADVECTION TERM
 (FOR PURE FINITE-DIFFERENCE OPTION, MIXELM=0) 
 = 0.1347    (WHEN MIN. R.F.=1)  AT K=   3, I=   2, J=  31


 TOTAL NUMBER OF POINT SOURCES/SINKS PRESENT IN THE FLOW MODEL =   240

 MAXIMUM STEPSIZE WHICH MEETS STABILITY CRITERION OF THE SINK & SOURCE TERM
 = 0.1000E+31(WHEN MIN. R.F.=1)  AT K=   0, I=   0, J=   0

 MAXIMUM STEPSIZE WHICH MEETS STABILITY CRITERION OF THE DISPERSION TERM
 = 0.7274E-02(WHEN MIN. R.F.=1)  AT K=   3, I=   2, J=  30
     1 CALLS TO GCG PACKAGE FOR TRANSPORT TIME STEP   5 IN FLOW TIME STEP  86 STRESS PERIOD   2
    11 TOTAL ITERATIONS
 
 SOLVING FOR HEAD 
 FLOW MODEL IS TRANSIENT
 FLOW MODEL CONTAINS CONSTANT-HEAD CELLS


 MAXIMUM STEPSIZE DURING WHICH ANY PARTICLE CANNOT MOVE MORE THAN ONE CELL
 = 0.1698    (WHEN MIN. R.F.=1)  AT K=   3, I=   2, J=  30

 MAXIMUM STEPSIZE WHICH MEETS STABILITY CRITERION OF THE ADVECTION TERM
 (FOR PURE FINITE-DIFFERENCE OPTION, MIXELM=0) 
 = 0.1347    (WHEN MIN. R.F.=1)  AT K=   3, I=   2, J=  31


 TOTAL NUMBER OF POINT SOURCES/SINKS PRESENT IN THE FLOW MODEL =   240

 MAXIMUM STEPSIZE WHICH MEETS STABILITY CRITERION OF THE SINK & SOURCE TERM
 = 0.1000E+31(WHEN MIN. R.F.=1)  AT K=   0, I=   0, J=   0

 MAXIMUM STEPSIZE WHICH MEETS STABILITY CRITERION OF THE DISPERSION TERM
 = 0.7274E-02(WHEN MIN. R.F.=1)  AT K=   3, I=   2, J=  30
     1 CALLS TO GCG PACKAGE FOR TRANSPORT TIME STEP   6 IN FLOW TIME STEP  86 STRESS PERIOD   2
    11 TOTAL ITERATIONS
 
 SOLVING FOR HEAD 
 FLOW MODEL IS TRANSIENT
 FLOW MODEL CONTAINS CONSTANT-HEAD CELLS


 MAXIMUM STEPSIZE DURING WHICH ANY PARTICLE CANNOT MOVE MORE THAN ONE CELL
 = 0.1698    (WHEN MIN. R.F.=1)  AT K=   3, I=   2, J=  30

 MAXIMUM STEPSIZE WHICH MEETS STABILITY CRITERION OF THE ADVECTION TERM
 (FOR PURE FINITE-DIFFERENCE OPTION, MIXELM=0) 
 = 0.1347    (WHEN MIN. R.F.=1)  AT K=   3, I=   2, J=  31


 TOTAL NUMBER OF POINT SOURCES/SINKS PRESENT IN THE FLOW MODEL =   240

 MAXIMUM STEPSIZE WHICH MEETS STABILITY CRITERION OF THE SINK & SOURCE TERM
 = 0.1000E+31(WHEN MIN. R.F.=1)  AT K=   0, I=   0, J=   0

 MAXIMUM STEPSIZE WHICH MEETS STABILITY CRITERION OF THE DISPERSION TERM
 = 0.7274E-02(WHEN MIN. R.F.=1)  AT K=   3, I=   2, J=  30
     1 CALLS TO GCG PACKAGE FOR TRANSPORT TIME STEP   7 IN FLOW TIME STEP  86 STRESS PERIOD   2
    11 TOTAL ITERATIONS
 
 SOLVING FOR HEAD 
 FLOW MODEL IS TRANSIENT
 FLOW MODEL CONTAINS CONSTANT-HEAD CELLS


 MAXIMUM STEPSIZE DURING WHICH ANY PARTICLE CANNOT MOVE MORE THAN ONE CELL
 = 0.1698    (WHEN MIN. R.F.=1)  AT K=   3, I=   2, J=  30

 MAXIMUM STEPSIZE WHICH MEETS STABILITY CRITERION OF THE ADVECTION TERM
 (FOR PURE FINITE-DIFFERENCE OPTION, MIXELM=0) 
 = 0.1347    (WHEN MIN. R.F.=1)  AT K=   3, I=   2, J=  31


 TOTAL NUMBER OF POINT SOURCES/SINKS PRESENT IN THE FLOW MODEL =   240

 MAXIMUM STEPSIZE WHICH MEETS STABILITY CRITERION OF THE SINK & SOURCE TERM
 = 0.1000E+31(WHEN MIN. R.F.=1)  AT K=   0, I=   0, J=   0

 MAXIMUM STEPSIZE WHICH MEETS STABILITY CRITERION OF THE DISPERSION TERM
 = 0.7274E-02(WHEN MIN. R.F.=1)  AT K=   3, I=   2, J=  30
     1 CALLS TO GCG PACKAGE FOR TRANSPORT TIME STEP   8 IN FLOW TIME STEP  86 STRESS PERIOD   2
    10 TOTAL ITERATIONS
  MAXIMUM CONCENTRATION CHANGES FOR EACH ITERATION:
  MAX. CHANGE LAYER,ROW,COL MAX. CHANGE LAYER,ROW,COL MAX. CHANGE LAYER,ROW,COL MAX. CHANGE LAYER,ROW,COL MAX. CHANGE LAYER,ROW,COL
 ------------------------------------------------------------------------------------------------------------------------------------
   0.5945E-03 ( 15,  1, 48)  0.5568E-04 (  9,  1, 57)  0.1465E-04 (  5,  2, 62)  0.5472E-05 (  5,  2, 59)  0.1736E-05 (  4,  2, 53)
   0.9101E-06 (  7,  1, 59)  0.3146E-06 (  3,  3, 28)  0.2084E-06 (  7,  1, 59)  0.1077E-06 (  3,  2, 27)  0.8305E-07 (  3,  2, 28)


                                          ================================================
                                                         FROM TIME =   87.000     TO    88.000    

 
 SOLVING FOR HEAD 
 FLOW MODEL IS TRANSIENT
 FLOW MODEL CONTAINS CONSTANT-HEAD CELLS


 MAXIMUM STEPSIZE DURING WHICH ANY PARTICLE CANNOT MOVE MORE THAN ONE CELL
 = 0.1698    (WHEN MIN. R.F.=1)  AT K=   3, I=   2, J=  30

 MAXIMUM STEPSIZE WHICH MEETS STABILITY CRITERION OF THE ADVECTION TERM
 (FOR PURE FINITE-DIFFERENCE OPTION, MIXELM=0) 
 = 0.1347    (WHEN MIN. R.F.=1)  AT K=   3, I=   2, J=  31


 TOTAL NUMBER OF POINT SOURCES/SINKS PRESENT IN THE FLOW MODEL =   240

 MAXIMUM STEPSIZE WHICH MEETS STABILITY CRITERION OF THE SINK & SOURCE TERM
 = 0.1000E+31(WHEN MIN. R.F.=1)  AT K=   0, I=   0, J=   0

 MAXIMUM STEPSIZE WHICH MEETS STABILITY CRITERION OF THE DISPERSION TERM
 = 0.7274E-02(WHEN MIN. R.F.=1)  AT K=   3, I=   2, J=  30


     1 CALLS TO GCG PACKAGE FOR TRANSPORT TIME STEP   1 IN FLOW TIME STEP  87 STRESS PERIOD   2
    10 TOTAL ITERATIONS

 NO OUTPUT CONTROL FOR STRESS PERIOD    2   TIME STEP  87
 
 SOLVING FOR HEAD 
 FLOW MODEL IS TRANSIENT
 FLOW MODEL CONTAINS CONSTANT-HEAD CELLS


 MAXIMUM STEPSIZE DURING WHICH ANY PARTICLE CANNOT MOVE MORE THAN ONE CELL
 = 0.1698    (WHEN MIN. R.F.=1)  AT K=   3, I=   2, J=  30

 MAXIMUM STEPSIZE WHICH MEETS STABILITY CRITERION OF THE ADVECTION TERM
 (FOR PURE FINITE-DIFFERENCE OPTION, MIXELM=0) 
 = 0.1346    (WHEN MIN. R.F.=1)  AT K=   3, I=   2, J=  31


 TOTAL NUMBER OF POINT SOURCES/SINKS PRESENT IN THE FLOW MODEL =   240

 MAXIMUM STEPSIZE WHICH MEETS STABILITY CRITERION OF THE SINK & SOURCE TERM
 = 0.1000E+31(WHEN MIN. R.F.=1)  AT K=   0, I=   0, J=   0

 MAXIMUM STEPSIZE WHICH MEETS STABILITY CRITERION OF THE DISPERSION TERM
 = 0.7274E-02(WHEN MIN. R.F.=1)  AT K=   3, I=   2, J=  30
     1 CALLS TO GCG PACKAGE FOR TRANSPORT TIME STEP   2 IN FLOW TIME STEP  87 STRESS PERIOD   2
    11 TOTAL ITERATIONS
 
 SOLVING FOR HEAD 
 FLOW MODEL IS TRANSIENT
 FLOW MODEL CONTAINS CONSTANT-HEAD CELLS


 MAXIMUM STEPSIZE DURING WHICH ANY PARTICLE CANNOT MOVE MORE THAN ONE CELL
 = 0.1698    (WHEN MIN. R.F.=1)  AT K=   3, I=   2, J=  30

 MAXIMUM STEPSIZE WHICH MEETS STABILITY CRITERION OF THE ADVECTION TERM
 (FOR PURE FINITE-DIFFERENCE OPTION, MIXELM=0) 
 = 0.1346    (WHEN MIN. R.F.=1)  AT K=   3, I=   2, J=  31


 TOTAL NUMBER OF POINT SOURCES/SINKS PRESENT IN THE FLOW MODEL =   240

 MAXIMUM STEPSIZE WHICH MEETS STABILITY CRITERION OF THE SINK & SOURCE TERM
 = 0.1000E+31(WHEN MIN. R.F.=1)  AT K=   0, I=   0, J=   0

 MAXIMUM STEPSIZE WHICH MEETS STABILITY CRITERION OF THE DISPERSION TERM
 = 0.7274E-02(WHEN MIN. R.F.=1)  AT K=   3, I=   2, J=  30
     1 CALLS TO GCG PACKAGE FOR TRANSPORT TIME STEP   3 IN FLOW TIME STEP  87 STRESS PERIOD   2
    11 TOTAL ITERATIONS
 
 SOLVING FOR HEAD 
 FLOW MODEL IS TRANSIENT
 FLOW MODEL CONTAINS CONSTANT-HEAD CELLS


 MAXIMUM STEPSIZE DURING WHICH ANY PARTICLE CANNOT MOVE MORE THAN ONE CELL
 = 0.1698    (WHEN MIN. R.F.=1)  AT K=   3, I=   2, J=  30

 MAXIMUM STEPSIZE WHICH MEETS STABILITY CRITERION OF THE ADVECTION TERM
 (FOR PURE FINITE-DIFFERENCE OPTION, MIXELM=0) 
 = 0.1346    (WHEN MIN. R.F.=1)  AT K=   3, I=   2, J=  31


 TOTAL NUMBER OF POINT SOURCES/SINKS PRESENT IN THE FLOW MODEL =   240

 MAXIMUM STEPSIZE WHICH MEETS STABILITY CRITERION OF THE SINK & SOURCE TERM
 = 0.1000E+31(WHEN MIN. R.F.=1)  AT K=   0, I=   0, J=   0

 MAXIMUM STEPSIZE WHICH MEETS STABILITY CRITERION OF THE DISPERSION TERM
 = 0.7274E-02(WHEN MIN. R.F.=1)  AT K=   3, I=   2, J=  30
     1 CALLS TO GCG PACKAGE FOR TRANSPORT TIME STEP   4 IN FLOW TIME STEP  87 STRESS PERIOD   2
    11 TOTAL ITERATIONS
 
 SOLVING FOR HEAD 
 FLOW MODEL IS TRANSIENT
 FLOW MODEL CONTAINS CONSTANT-HEAD CELLS


 MAXIMUM STEPSIZE DURING WHICH ANY PARTICLE CANNOT MOVE MORE THAN ONE CELL
 = 0.1698    (WHEN MIN. R.F.=1)  AT K=   3, I=   2, J=  30

 MAXIMUM STEPSIZE WHICH MEETS STABILITY CRITERION OF THE ADVECTION TERM
 (FOR PURE FINITE-DIFFERENCE OPTION, MIXELM=0) 
 = 0.1346    (WHEN MIN. R.F.=1)  AT K=   3, I=   2, J=  31


 TOTAL NUMBER OF POINT SOURCES/SINKS PRESENT IN THE FLOW MODEL =   240

 MAXIMUM STEPSIZE WHICH MEETS STABILITY CRITERION OF THE SINK & SOURCE TERM
 = 0.1000E+31(WHEN MIN. R.F.=1)  AT K=   0, I=   0, J=   0

 MAXIMUM STEPSIZE WHICH MEETS STABILITY CRITERION OF THE DISPERSION TERM
 = 0.7274E-02(WHEN MIN. R.F.=1)  AT K=   3, I=   2, J=  30
     1 CALLS TO GCG PACKAGE FOR TRANSPORT TIME STEP   5 IN FLOW TIME STEP  87 STRESS PERIOD   2
    11 TOTAL ITERATIONS
 
 SOLVING FOR HEAD 
 FLOW MODEL IS TRANSIENT
 FLOW MODEL CONTAINS CONSTANT-HEAD CELLS


 MAXIMUM STEPSIZE DURING WHICH ANY PARTICLE CANNOT MOVE MORE THAN ONE CELL
 = 0.1698    (WHEN MIN. R.F.=1)  AT K=   3, I=   2, J=  30

 MAXIMUM STEPSIZE WHICH MEETS STABILITY CRITERION OF THE ADVECTION TERM
 (FOR PURE FINITE-DIFFERENCE OPTION, MIXELM=0) 
 = 0.1346    (WHEN MIN. R.F.=1)  AT K=   3, I=   2, J=  31


 TOTAL NUMBER OF POINT SOURCES/SINKS PRESENT IN THE FLOW MODEL =   240

 MAXIMUM STEPSIZE WHICH MEETS STABILITY CRITERION OF THE SINK & SOURCE TERM
 = 0.1000E+31(WHEN MIN. R.F.=1)  AT K=   0, I=   0, J=   0

 MAXIMUM STEPSIZE WHICH MEETS STABILITY CRITERION OF THE DISPERSION TERM
 = 0.7274E-02(WHEN MIN. R.F.=1)  AT K=   3, I=   2, J=  30
     1 CALLS TO GCG PACKAGE FOR TRANSPORT TIME STEP   6 IN FLOW TIME STEP  87 STRESS PERIOD   2
    11 TOTAL ITERATIONS
 
 SOLVING FOR HEAD 
 FLOW MODEL IS TRANSIENT
 FLOW MODEL CONTAINS CONSTANT-HEAD CELLS


 MAXIMUM STEPSIZE DURING WHICH ANY PARTICLE CANNOT MOVE MORE THAN ONE CELL
 = 0.1698    (WHEN MIN. R.F.=1)  AT K=   3, I=   2, J=  30

 MAXIMUM STEPSIZE WHICH MEETS STABILITY CRITERION OF THE ADVECTION TERM
 (FOR PURE FINITE-DIFFERENCE OPTION, MIXELM=0) 
 = 0.1346    (WHEN MIN. R.F.=1)  AT K=   3, I=   2, J=  31


 TOTAL NUMBER OF POINT SOURCES/SINKS PRESENT IN THE FLOW MODEL =   240

 MAXIMUM STEPSIZE WHICH MEETS STABILITY CRITERION OF THE SINK & SOURCE TERM
 = 0.1000E+31(WHEN MIN. R.F.=1)  AT K=   0, I=   0, J=   0

 MAXIMUM STEPSIZE WHICH MEETS STABILITY CRITERION OF THE DISPERSION TERM
 = 0.7274E-02(WHEN MIN. R.F.=1)  AT K=   3, I=   2, J=  30
     1 CALLS TO GCG PACKAGE FOR TRANSPORT TIME STEP   7 IN FLOW TIME STEP  87 STRESS PERIOD   2
    11 TOTAL ITERATIONS
 
 SOLVING FOR HEAD 
 FLOW MODEL IS TRANSIENT
 FLOW MODEL CONTAINS CONSTANT-HEAD CELLS


 MAXIMUM STEPSIZE DURING WHICH ANY PARTICLE CANNOT MOVE MORE THAN ONE CELL
 = 0.1698    (WHEN MIN. R.F.=1)  AT K=   3, I=   2, J=  30

 MAXIMUM STEPSIZE WHICH MEETS STABILITY CRITERION OF THE ADVECTION TERM
 (FOR PURE FINITE-DIFFERENCE OPTION, MIXELM=0) 
 = 0.1346    (WHEN MIN. R.F.=1)  AT K=   3, I=   2, J=  31


 TOTAL NUMBER OF POINT SOURCES/SINKS PRESENT IN THE FLOW MODEL =   240

 MAXIMUM STEPSIZE WHICH MEETS STABILITY CRITERION OF THE SINK & SOURCE TERM
 = 0.1000E+31(WHEN MIN. R.F.=1)  AT K=   0, I=   0, J=   0

 MAXIMUM STEPSIZE WHICH MEETS STABILITY CRITERION OF THE DISPERSION TERM
 = 0.7274E-02(WHEN MIN. R.F.=1)  AT K=   3, I=   2, J=  30
     1 CALLS TO GCG PACKAGE FOR TRANSPORT TIME STEP   8 IN FLOW TIME STEP  87 STRESS PERIOD   2
    10 TOTAL ITERATIONS
  MAXIMUM CONCENTRATION CHANGES FOR EACH ITERATION:
  MAX. CHANGE LAYER,ROW,COL MAX. CHANGE LAYER,ROW,COL MAX. CHANGE LAYER,ROW,COL MAX. CHANGE LAYER,ROW,COL MAX. CHANGE LAYER,ROW,COL
 ------------------------------------------------------------------------------------------------------------------------------------
   0.5929E-03 ( 15,  1, 48)  0.5415E-04 (  9,  1, 57)  0.1429E-04 (  5,  2, 62)  0.5339E-05 (  5,  2, 59)  0.1678E-05 (  4,  2, 53)
   0.8831E-06 (  7,  1, 59)  0.2991E-06 (  3,  3, 28)  0.1987E-06 (  7,  1, 59)  0.1031E-06 (  3,  2, 27)  0.7969E-07 (  3,  2, 28)


                                          ================================================
                                                         FROM TIME =   88.000     TO    89.000    

 
 SOLVING FOR HEAD 
 FLOW MODEL IS TRANSIENT
 FLOW MODEL CONTAINS CONSTANT-HEAD CELLS


 MAXIMUM STEPSIZE DURING WHICH ANY PARTICLE CANNOT MOVE MORE THAN ONE CELL
 = 0.1698    (WHEN MIN. R.F.=1)  AT K=   3, I=   2, J=  30

 MAXIMUM STEPSIZE WHICH MEETS STABILITY CRITERION OF THE ADVECTION TERM
 (FOR PURE FINITE-DIFFERENCE OPTION, MIXELM=0) 
 = 0.1346    (WHEN MIN. R.F.=1)  AT K=   3, I=   2, J=  31


 TOTAL NUMBER OF POINT SOURCES/SINKS PRESENT IN THE FLOW MODEL =   240

 MAXIMUM STEPSIZE WHICH MEETS STABILITY CRITERION OF THE SINK & SOURCE TERM
 = 0.1000E+31(WHEN MIN. R.F.=1)  AT K=   0, I=   0, J=   0

 MAXIMUM STEPSIZE WHICH MEETS STABILITY CRITERION OF THE DISPERSION TERM
 = 0.7274E-02(WHEN MIN. R.F.=1)  AT K=   3, I=   2, J=  30


     1 CALLS TO GCG PACKAGE FOR TRANSPORT TIME STEP   1 IN FLOW TIME STEP  88 STRESS PERIOD   2
    10 TOTAL ITERATIONS

 NO OUTPUT CONTROL FOR STRESS PERIOD    2   TIME STEP  88
 
 SOLVING FOR HEAD 
 FLOW MODEL IS TRANSIENT
 FLOW MODEL CONTAINS CONSTANT-HEAD CELLS


 MAXIMUM STEPSIZE DURING WHICH ANY PARTICLE CANNOT MOVE MORE THAN ONE CELL
 = 0.1698    (WHEN MIN. R.F.=1)  AT K=   3, I=   2, J=  30

 MAXIMUM STEPSIZE WHICH MEETS STABILITY CRITERION OF THE ADVECTION TERM
 (FOR PURE FINITE-DIFFERENCE OPTION, MIXELM=0) 
 = 0.1346    (WHEN MIN. R.F.=1)  AT K=   3, I=   2, J=  31


 TOTAL NUMBER OF POINT SOURCES/SINKS PRESENT IN THE FLOW MODEL =   240

 MAXIMUM STEPSIZE WHICH MEETS STABILITY CRITERION OF THE SINK & SOURCE TERM
 = 0.1000E+31(WHEN MIN. R.F.=1)  AT K=   0, I=   0, J=   0

 MAXIMUM STEPSIZE WHICH MEETS STABILITY CRITERION OF THE DISPERSION TERM
 = 0.7274E-02(WHEN MIN. R.F.=1)  AT K=   3, I=   2, J=  30
     1 CALLS TO GCG PACKAGE FOR TRANSPORT TIME STEP   2 IN FLOW TIME STEP  88 STRESS PERIOD   2
    11 TOTAL ITERATIONS
 
 SOLVING FOR HEAD 
 FLOW MODEL IS TRANSIENT
 FLOW MODEL CONTAINS CONSTANT-HEAD CELLS


 MAXIMUM STEPSIZE DURING WHICH ANY PARTICLE CANNOT MOVE MORE THAN ONE CELL
 = 0.1698    (WHEN MIN. R.F.=1)  AT K=   3, I=   2, J=  30

 MAXIMUM STEPSIZE WHICH MEETS STABILITY CRITERION OF THE ADVECTION TERM
 (FOR PURE FINITE-DIFFERENCE OPTION, MIXELM=0) 
 = 0.1346    (WHEN MIN. R.F.=1)  AT K=   3, I=   2, J=  31


 TOTAL NUMBER OF POINT SOURCES/SINKS PRESENT IN THE FLOW MODEL =   240

 MAXIMUM STEPSIZE WHICH MEETS STABILITY CRITERION OF THE SINK & SOURCE TERM
 = 0.1000E+31(WHEN MIN. R.F.=1)  AT K=   0, I=   0, J=   0

 MAXIMUM STEPSIZE WHICH MEETS STABILITY CRITERION OF THE DISPERSION TERM
 = 0.7274E-02(WHEN MIN. R.F.=1)  AT K=   3, I=   2, J=  30
     1 CALLS TO GCG PACKAGE FOR TRANSPORT TIME STEP   3 IN FLOW TIME STEP  88 STRESS PERIOD   2
    11 TOTAL ITERATIONS
 
 SOLVING FOR HEAD 
 FLOW MODEL IS TRANSIENT
 FLOW MODEL CONTAINS CONSTANT-HEAD CELLS


 MAXIMUM STEPSIZE DURING WHICH ANY PARTICLE CANNOT MOVE MORE THAN ONE CELL
 = 0.1698    (WHEN MIN. R.F.=1)  AT K=   3, I=   2, J=  30

 MAXIMUM STEPSIZE WHICH MEETS STABILITY CRITERION OF THE ADVECTION TERM
 (FOR PURE FINITE-DIFFERENCE OPTION, MIXELM=0) 
 = 0.1346    (WHEN MIN. R.F.=1)  AT K=   3, I=   2, J=  31


 TOTAL NUMBER OF POINT SOURCES/SINKS PRESENT IN THE FLOW MODEL =   240

 MAXIMUM STEPSIZE WHICH MEETS STABILITY CRITERION OF THE SINK & SOURCE TERM
 = 0.1000E+31(WHEN MIN. R.F.=1)  AT K=   0, I=   0, J=   0

 MAXIMUM STEPSIZE WHICH MEETS STABILITY CRITERION OF THE DISPERSION TERM
 = 0.7274E-02(WHEN MIN. R.F.=1)  AT K=   3, I=   2, J=  30
     1 CALLS TO GCG PACKAGE FOR TRANSPORT TIME STEP   4 IN FLOW TIME STEP  88 STRESS PERIOD   2
    11 TOTAL ITERATIONS
 
 SOLVING FOR HEAD 
 FLOW MODEL IS TRANSIENT
 FLOW MODEL CONTAINS CONSTANT-HEAD CELLS


 MAXIMUM STEPSIZE DURING WHICH ANY PARTICLE CANNOT MOVE MORE THAN ONE CELL
 = 0.1698    (WHEN MIN. R.F.=1)  AT K=   3, I=   2, J=  30

 MAXIMUM STEPSIZE WHICH MEETS STABILITY CRITERION OF THE ADVECTION TERM
 (FOR PURE FINITE-DIFFERENCE OPTION, MIXELM=0) 
 = 0.1346    (WHEN MIN. R.F.=1)  AT K=   3, I=   2, J=  31


 TOTAL NUMBER OF POINT SOURCES/SINKS PRESENT IN THE FLOW MODEL =   240

 MAXIMUM STEPSIZE WHICH MEETS STABILITY CRITERION OF THE SINK & SOURCE TERM
 = 0.1000E+31(WHEN MIN. R.F.=1)  AT K=   0, I=   0, J=   0

 MAXIMUM STEPSIZE WHICH MEETS STABILITY CRITERION OF THE DISPERSION TERM
 = 0.7274E-02(WHEN MIN. R.F.=1)  AT K=   3, I=   2, J=  30
     1 CALLS TO GCG PACKAGE FOR TRANSPORT TIME STEP   5 IN FLOW TIME STEP  88 STRESS PERIOD   2
    11 TOTAL ITERATIONS
 
 SOLVING FOR HEAD 
 FLOW MODEL IS TRANSIENT
 FLOW MODEL CONTAINS CONSTANT-HEAD CELLS


 MAXIMUM STEPSIZE DURING WHICH ANY PARTICLE CANNOT MOVE MORE THAN ONE CELL
 = 0.1698    (WHEN MIN. R.F.=1)  AT K=   3, I=   2, J=  30

 MAXIMUM STEPSIZE WHICH MEETS STABILITY CRITERION OF THE ADVECTION TERM
 (FOR PURE FINITE-DIFFERENCE OPTION, MIXELM=0) 
 = 0.1346    (WHEN MIN. R.F.=1)  AT K=   3, I=   2, J=  31


 TOTAL NUMBER OF POINT SOURCES/SINKS PRESENT IN THE FLOW MODEL =   240

 MAXIMUM STEPSIZE WHICH MEETS STABILITY CRITERION OF THE SINK & SOURCE TERM
 = 0.1000E+31(WHEN MIN. R.F.=1)  AT K=   0, I=   0, J=   0

 MAXIMUM STEPSIZE WHICH MEETS STABILITY CRITERION OF THE DISPERSION TERM
 = 0.7274E-02(WHEN MIN. R.F.=1)  AT K=   3, I=   2, J=  30
     1 CALLS TO GCG PACKAGE FOR TRANSPORT TIME STEP   6 IN FLOW TIME STEP  88 STRESS PERIOD   2
    11 TOTAL ITERATIONS
 
 SOLVING FOR HEAD 
 FLOW MODEL IS TRANSIENT
 FLOW MODEL CONTAINS CONSTANT-HEAD CELLS


 MAXIMUM STEPSIZE DURING WHICH ANY PARTICLE CANNOT MOVE MORE THAN ONE CELL
 = 0.1698    (WHEN MIN. R.F.=1)  AT K=   3, I=   2, J=  30

 MAXIMUM STEPSIZE WHICH MEETS STABILITY CRITERION OF THE ADVECTION TERM
 (FOR PURE FINITE-DIFFERENCE OPTION, MIXELM=0) 
 = 0.1346    (WHEN MIN. R.F.=1)  AT K=   3, I=   2, J=  31


 TOTAL NUMBER OF POINT SOURCES/SINKS PRESENT IN THE FLOW MODEL =   240

 MAXIMUM STEPSIZE WHICH MEETS STABILITY CRITERION OF THE SINK & SOURCE TERM
 = 0.1000E+31(WHEN MIN. R.F.=1)  AT K=   0, I=   0, J=   0

 MAXIMUM STEPSIZE WHICH MEETS STABILITY CRITERION OF THE DISPERSION TERM
 = 0.7274E-02(WHEN MIN. R.F.=1)  AT K=   3, I=   2, J=  30
     1 CALLS TO GCG PACKAGE FOR TRANSPORT TIME STEP   7 IN FLOW TIME STEP  88 STRESS PERIOD   2
    10 TOTAL ITERATIONS
 
 SOLVING FOR HEAD 
 FLOW MODEL IS TRANSIENT
 FLOW MODEL CONTAINS CONSTANT-HEAD CELLS


 MAXIMUM STEPSIZE DURING WHICH ANY PARTICLE CANNOT MOVE MORE THAN ONE CELL
 = 0.1698    (WHEN MIN. R.F.=1)  AT K=   3, I=   2, J=  30

 MAXIMUM STEPSIZE WHICH MEETS STABILITY CRITERION OF THE ADVECTION TERM
 (FOR PURE FINITE-DIFFERENCE OPTION, MIXELM=0) 
 = 0.1346    (WHEN MIN. R.F.=1)  AT K=   3, I=   2, J=  31


 TOTAL NUMBER OF POINT SOURCES/SINKS PRESENT IN THE FLOW MODEL =   240

 MAXIMUM STEPSIZE WHICH MEETS STABILITY CRITERION OF THE SINK & SOURCE TERM
 = 0.1000E+31(WHEN MIN. R.F.=1)  AT K=   0, I=   0, J=   0

 MAXIMUM STEPSIZE WHICH MEETS STABILITY CRITERION OF THE DISPERSION TERM
 = 0.7274E-02(WHEN MIN. R.F.=1)  AT K=   3, I=   2, J=  30
     1 CALLS TO GCG PACKAGE FOR TRANSPORT TIME STEP   8 IN FLOW TIME STEP  88 STRESS PERIOD   2
    10 TOTAL ITERATIONS
  MAXIMUM CONCENTRATION CHANGES FOR EACH ITERATION:
  MAX. CHANGE LAYER,ROW,COL MAX. CHANGE LAYER,ROW,COL MAX. CHANGE LAYER,ROW,COL MAX. CHANGE LAYER,ROW,COL MAX. CHANGE LAYER,ROW,COL
 ------------------------------------------------------------------------------------------------------------------------------------
   0.5906E-03 ( 15,  1, 48)  0.5266E-04 (  9,  1, 57)  0.1394E-04 (  5,  2, 62)  0.5202E-05 (  5,  2, 59)  0.1626E-05 (  4,  2, 54)
   0.8088E-06 (  7,  1, 59)  0.3313E-06 (  3,  2, 30)  0.2018E-06 (  7,  1, 59)  0.1060E-06 (  4,  2, 59)  0.6206E-07 (  4,  2, 28)


                                          ================================================
                                                         FROM TIME =   89.000     TO    90.000    

 
 SOLVING FOR HEAD 
 FLOW MODEL IS TRANSIENT
 FLOW MODEL CONTAINS CONSTANT-HEAD CELLS


 MAXIMUM STEPSIZE DURING WHICH ANY PARTICLE CANNOT MOVE MORE THAN ONE CELL
 = 0.1698    (WHEN MIN. R.F.=1)  AT K=   3, I=   2, J=  30

 MAXIMUM STEPSIZE WHICH MEETS STABILITY CRITERION OF THE ADVECTION TERM
 (FOR PURE FINITE-DIFFERENCE OPTION, MIXELM=0) 
 = 0.1346    (WHEN MIN. R.F.=1)  AT K=   3, I=   2, J=  31


 TOTAL NUMBER OF POINT SOURCES/SINKS PRESENT IN THE FLOW MODEL =   240

 MAXIMUM STEPSIZE WHICH MEETS STABILITY CRITERION OF THE SINK & SOURCE TERM
 = 0.1000E+31(WHEN MIN. R.F.=1)  AT K=   0, I=   0, J=   0

 MAXIMUM STEPSIZE WHICH MEETS STABILITY CRITERION OF THE DISPERSION TERM
 = 0.7274E-02(WHEN MIN. R.F.=1)  AT K=   3, I=   2, J=  30


     1 CALLS TO GCG PACKAGE FOR TRANSPORT TIME STEP   1 IN FLOW TIME STEP  89 STRESS PERIOD   2
    11 TOTAL ITERATIONS

 NO OUTPUT CONTROL FOR STRESS PERIOD    2   TIME STEP  89
 
 SOLVING FOR HEAD 
 FLOW MODEL IS TRANSIENT
 FLOW MODEL CONTAINS CONSTANT-HEAD CELLS


 MAXIMUM STEPSIZE DURING WHICH ANY PARTICLE CANNOT MOVE MORE THAN ONE CELL
 = 0.1698    (WHEN MIN. R.F.=1)  AT K=   3, I=   2, J=  30

 MAXIMUM STEPSIZE WHICH MEETS STABILITY CRITERION OF THE ADVECTION TERM
 (FOR PURE FINITE-DIFFERENCE OPTION, MIXELM=0) 
 = 0.1346    (WHEN MIN. R.F.=1)  AT K=   3, I=   2, J=  31


 TOTAL NUMBER OF POINT SOURCES/SINKS PRESENT IN THE FLOW MODEL =   240

 MAXIMUM STEPSIZE WHICH MEETS STABILITY CRITERION OF THE SINK & SOURCE TERM
 = 0.1000E+31(WHEN MIN. R.F.=1)  AT K=   0, I=   0, J=   0

 MAXIMUM STEPSIZE WHICH MEETS STABILITY CRITERION OF THE DISPERSION TERM
 = 0.7274E-02(WHEN MIN. R.F.=1)  AT K=   3, I=   2, J=  30
     1 CALLS TO GCG PACKAGE FOR TRANSPORT TIME STEP   2 IN FLOW TIME STEP  89 STRESS PERIOD   2
    11 TOTAL ITERATIONS
 
 SOLVING FOR HEAD 
 FLOW MODEL IS TRANSIENT
 FLOW MODEL CONTAINS CONSTANT-HEAD CELLS


 MAXIMUM STEPSIZE DURING WHICH ANY PARTICLE CANNOT MOVE MORE THAN ONE CELL
 = 0.1698    (WHEN MIN. R.F.=1)  AT K=   3, I=   2, J=  30

 MAXIMUM STEPSIZE WHICH MEETS STABILITY CRITERION OF THE ADVECTION TERM
 (FOR PURE FINITE-DIFFERENCE OPTION, MIXELM=0) 
 = 0.1346    (WHEN MIN. R.F.=1)  AT K=   3, I=   2, J=  31


 TOTAL NUMBER OF POINT SOURCES/SINKS PRESENT IN THE FLOW MODEL =   240

 MAXIMUM STEPSIZE WHICH MEETS STABILITY CRITERION OF THE SINK & SOURCE TERM
 = 0.1000E+31(WHEN MIN. R.F.=1)  AT K=   0, I=   0, J=   0

 MAXIMUM STEPSIZE WHICH MEETS STABILITY CRITERION OF THE DISPERSION TERM
 = 0.7274E-02(WHEN MIN. R.F.=1)  AT K=   3, I=   2, J=  30
     1 CALLS TO GCG PACKAGE FOR TRANSPORT TIME STEP   3 IN FLOW TIME STEP  89 STRESS PERIOD   2
    11 TOTAL ITERATIONS
 
 SOLVING FOR HEAD 
 FLOW MODEL IS TRANSIENT
 FLOW MODEL CONTAINS CONSTANT-HEAD CELLS


 MAXIMUM STEPSIZE DURING WHICH ANY PARTICLE CANNOT MOVE MORE THAN ONE CELL
 = 0.1698    (WHEN MIN. R.F.=1)  AT K=   3, I=   2, J=  30

 MAXIMUM STEPSIZE WHICH MEETS STABILITY CRITERION OF THE ADVECTION TERM
 (FOR PURE FINITE-DIFFERENCE OPTION, MIXELM=0) 
 = 0.1346    (WHEN MIN. R.F.=1)  AT K=   3, I=   2, J=  31


 TOTAL NUMBER OF POINT SOURCES/SINKS PRESENT IN THE FLOW MODEL =   240

 MAXIMUM STEPSIZE WHICH MEETS STABILITY CRITERION OF THE SINK & SOURCE TERM
 = 0.1000E+31(WHEN MIN. R.F.=1)  AT K=   0, I=   0, J=   0

 MAXIMUM STEPSIZE WHICH MEETS STABILITY CRITERION OF THE DISPERSION TERM
 = 0.7274E-02(WHEN MIN. R.F.=1)  AT K=   3, I=   2, J=  30
     1 CALLS TO GCG PACKAGE FOR TRANSPORT TIME STEP   4 IN FLOW TIME STEP  89 STRESS PERIOD   2
    11 TOTAL ITERATIONS
 
 SOLVING FOR HEAD 
 FLOW MODEL IS TRANSIENT
 FLOW MODEL CONTAINS CONSTANT-HEAD CELLS


 MAXIMUM STEPSIZE DURING WHICH ANY PARTICLE CANNOT MOVE MORE THAN ONE CELL
 = 0.1698    (WHEN MIN. R.F.=1)  AT K=   3, I=   2, J=  30

 MAXIMUM STEPSIZE WHICH MEETS STABILITY CRITERION OF THE ADVECTION TERM
 (FOR PURE FINITE-DIFFERENCE OPTION, MIXELM=0) 
 = 0.1346    (WHEN MIN. R.F.=1)  AT K=   3, I=   2, J=  31


 TOTAL NUMBER OF POINT SOURCES/SINKS PRESENT IN THE FLOW MODEL =   240

 MAXIMUM STEPSIZE WHICH MEETS STABILITY CRITERION OF THE SINK & SOURCE TERM
 = 0.1000E+31(WHEN MIN. R.F.=1)  AT K=   0, I=   0, J=   0

 MAXIMUM STEPSIZE WHICH MEETS STABILITY CRITERION OF THE DISPERSION TERM
 = 0.7274E-02(WHEN MIN. R.F.=1)  AT K=   3, I=   2, J=  30
     1 CALLS TO GCG PACKAGE FOR TRANSPORT TIME STEP   5 IN FLOW TIME STEP  89 STRESS PERIOD   2
    10 TOTAL ITERATIONS
 
 SOLVING FOR HEAD 
 FLOW MODEL IS TRANSIENT
 FLOW MODEL CONTAINS CONSTANT-HEAD CELLS


 MAXIMUM STEPSIZE DURING WHICH ANY PARTICLE CANNOT MOVE MORE THAN ONE CELL
 = 0.1698    (WHEN MIN. R.F.=1)  AT K=   3, I=   2, J=  30

 MAXIMUM STEPSIZE WHICH MEETS STABILITY CRITERION OF THE ADVECTION TERM
 (FOR PURE FINITE-DIFFERENCE OPTION, MIXELM=0) 
 = 0.1346    (WHEN MIN. R.F.=1)  AT K=   3, I=   2, J=  31


 TOTAL NUMBER OF POINT SOURCES/SINKS PRESENT IN THE FLOW MODEL =   240

 MAXIMUM STEPSIZE WHICH MEETS STABILITY CRITERION OF THE SINK & SOURCE TERM
 = 0.1000E+31(WHEN MIN. R.F.=1)  AT K=   0, I=   0, J=   0

 MAXIMUM STEPSIZE WHICH MEETS STABILITY CRITERION OF THE DISPERSION TERM
 = 0.7274E-02(WHEN MIN. R.F.=1)  AT K=   3, I=   2, J=  30
     1 CALLS TO GCG PACKAGE FOR TRANSPORT TIME STEP   6 IN FLOW TIME STEP  89 STRESS PERIOD   2
    10 TOTAL ITERATIONS
 
 SOLVING FOR HEAD 
 FLOW MODEL IS TRANSIENT
 FLOW MODEL CONTAINS CONSTANT-HEAD CELLS


 MAXIMUM STEPSIZE DURING WHICH ANY PARTICLE CANNOT MOVE MORE THAN ONE CELL
 = 0.1698    (WHEN MIN. R.F.=1)  AT K=   3, I=   2, J=  30

 MAXIMUM STEPSIZE WHICH MEETS STABILITY CRITERION OF THE ADVECTION TERM
 (FOR PURE FINITE-DIFFERENCE OPTION, MIXELM=0) 
 = 0.1346    (WHEN MIN. R.F.=1)  AT K=   3, I=   2, J=  31


 TOTAL NUMBER OF POINT SOURCES/SINKS PRESENT IN THE FLOW MODEL =   240

 MAXIMUM STEPSIZE WHICH MEETS STABILITY CRITERION OF THE SINK & SOURCE TERM
 = 0.1000E+31(WHEN MIN. R.F.=1)  AT K=   0, I=   0, J=   0

 MAXIMUM STEPSIZE WHICH MEETS STABILITY CRITERION OF THE DISPERSION TERM
 = 0.7274E-02(WHEN MIN. R.F.=1)  AT K=   3, I=   2, J=  30
     1 CALLS TO GCG PACKAGE FOR TRANSPORT TIME STEP   7 IN FLOW TIME STEP  89 STRESS PERIOD   2
    10 TOTAL ITERATIONS
 
 SOLVING FOR HEAD 
 FLOW MODEL IS TRANSIENT
 FLOW MODEL CONTAINS CONSTANT-HEAD CELLS


 MAXIMUM STEPSIZE DURING WHICH ANY PARTICLE CANNOT MOVE MORE THAN ONE CELL
 = 0.1698    (WHEN MIN. R.F.=1)  AT K=   3, I=   2, J=  30

 MAXIMUM STEPSIZE WHICH MEETS STABILITY CRITERION OF THE ADVECTION TERM
 (FOR PURE FINITE-DIFFERENCE OPTION, MIXELM=0) 
 = 0.1346    (WHEN MIN. R.F.=1)  AT K=   3, I=   2, J=  31


 TOTAL NUMBER OF POINT SOURCES/SINKS PRESENT IN THE FLOW MODEL =   240

 MAXIMUM STEPSIZE WHICH MEETS STABILITY CRITERION OF THE SINK & SOURCE TERM
 = 0.1000E+31(WHEN MIN. R.F.=1)  AT K=   0, I=   0, J=   0

 MAXIMUM STEPSIZE WHICH MEETS STABILITY CRITERION OF THE DISPERSION TERM
 = 0.7274E-02(WHEN MIN. R.F.=1)  AT K=   3, I=   2, J=  30
     1 CALLS TO GCG PACKAGE FOR TRANSPORT TIME STEP   8 IN FLOW TIME STEP  89 STRESS PERIOD   2
    10 TOTAL ITERATIONS
  MAXIMUM CONCENTRATION CHANGES FOR EACH ITERATION:
  MAX. CHANGE LAYER,ROW,COL MAX. CHANGE LAYER,ROW,COL MAX. CHANGE LAYER,ROW,COL MAX. CHANGE LAYER,ROW,COL MAX. CHANGE LAYER,ROW,COL
 ------------------------------------------------------------------------------------------------------------------------------------
   0.5875E-03 ( 15,  1, 48)  0.5121E-04 (  9,  1, 57)  0.1360E-04 (  5,  2, 62)  0.5078E-05 (  5,  2, 59)  0.1575E-05 (  4,  2, 54)
   0.8014E-06 (  7,  1, 59)  0.2982E-06 (  3,  2, 30)  0.1912E-06 (  7,  1, 59)  0.1019E-06 (  4,  2, 59)  0.5953E-07 (  4,  2, 28)


                                          ================================================
                                                         FROM TIME =   90.000     TO    91.000    

 
 SOLVING FOR HEAD 
 FLOW MODEL IS TRANSIENT
 FLOW MODEL CONTAINS CONSTANT-HEAD CELLS


 MAXIMUM STEPSIZE DURING WHICH ANY PARTICLE CANNOT MOVE MORE THAN ONE CELL
 = 0.1698    (WHEN MIN. R.F.=1)  AT K=   3, I=   2, J=  30

 MAXIMUM STEPSIZE WHICH MEETS STABILITY CRITERION OF THE ADVECTION TERM
 (FOR PURE FINITE-DIFFERENCE OPTION, MIXELM=0) 
 = 0.1346    (WHEN MIN. R.F.=1)  AT K=   3, I=   2, J=  31


 TOTAL NUMBER OF POINT SOURCES/SINKS PRESENT IN THE FLOW MODEL =   240

 MAXIMUM STEPSIZE WHICH MEETS STABILITY CRITERION OF THE SINK & SOURCE TERM
 = 0.1000E+31(WHEN MIN. R.F.=1)  AT K=   0, I=   0, J=   0

 MAXIMUM STEPSIZE WHICH MEETS STABILITY CRITERION OF THE DISPERSION TERM
 = 0.7274E-02(WHEN MIN. R.F.=1)  AT K=   3, I=   2, J=  30


     1 CALLS TO GCG PACKAGE FOR TRANSPORT TIME STEP   1 IN FLOW TIME STEP  90 STRESS PERIOD   2
    10 TOTAL ITERATIONS

 NO OUTPUT CONTROL FOR STRESS PERIOD    2   TIME STEP  90
 
 SOLVING FOR HEAD 
 FLOW MODEL IS TRANSIENT
 FLOW MODEL CONTAINS CONSTANT-HEAD CELLS


 MAXIMUM STEPSIZE DURING WHICH ANY PARTICLE CANNOT MOVE MORE THAN ONE CELL
 = 0.1698    (WHEN MIN. R.F.=1)  AT K=   3, I=   2, J=  30

 MAXIMUM STEPSIZE WHICH MEETS STABILITY CRITERION OF THE ADVECTION TERM
 (FOR PURE FINITE-DIFFERENCE OPTION, MIXELM=0) 
 = 0.1346    (WHEN MIN. R.F.=1)  AT K=   3, I=   2, J=  31


 TOTAL NUMBER OF POINT SOURCES/SINKS PRESENT IN THE FLOW MODEL =   240

 MAXIMUM STEPSIZE WHICH MEETS STABILITY CRITERION OF THE SINK & SOURCE TERM
 = 0.1000E+31(WHEN MIN. R.F.=1)  AT K=   0, I=   0, J=   0

 MAXIMUM STEPSIZE WHICH MEETS STABILITY CRITERION OF THE DISPERSION TERM
 = 0.7274E-02(WHEN MIN. R.F.=1)  AT K=   3, I=   2, J=  30
     1 CALLS TO GCG PACKAGE FOR TRANSPORT TIME STEP   2 IN FLOW TIME STEP  90 STRESS PERIOD   2
    10 TOTAL ITERATIONS
 
 SOLVING FOR HEAD 
 FLOW MODEL IS TRANSIENT
 FLOW MODEL CONTAINS CONSTANT-HEAD CELLS


 MAXIMUM STEPSIZE DURING WHICH ANY PARTICLE CANNOT MOVE MORE THAN ONE CELL
 = 0.1698    (WHEN MIN. R.F.=1)  AT K=   3, I=   2, J=  30

 MAXIMUM STEPSIZE WHICH MEETS STABILITY CRITERION OF THE ADVECTION TERM
 (FOR PURE FINITE-DIFFERENCE OPTION, MIXELM=0) 
 = 0.1346    (WHEN MIN. R.F.=1)  AT K=   3, I=   2, J=  31


 TOTAL NUMBER OF POINT SOURCES/SINKS PRESENT IN THE FLOW MODEL =   240

 MAXIMUM STEPSIZE WHICH MEETS STABILITY CRITERION OF THE SINK & SOURCE TERM
 = 0.1000E+31(WHEN MIN. R.F.=1)  AT K=   0, I=   0, J=   0

 MAXIMUM STEPSIZE WHICH MEETS STABILITY CRITERION OF THE DISPERSION TERM
 = 0.7273E-02(WHEN MIN. R.F.=1)  AT K=   3, I=   2, J=  30
     1 CALLS TO GCG PACKAGE FOR TRANSPORT TIME STEP   3 IN FLOW TIME STEP  90 STRESS PERIOD   2
    10 TOTAL ITERATIONS
 
 SOLVING FOR HEAD 
 FLOW MODEL IS TRANSIENT
 FLOW MODEL CONTAINS CONSTANT-HEAD CELLS


 MAXIMUM STEPSIZE DURING WHICH ANY PARTICLE CANNOT MOVE MORE THAN ONE CELL
 = 0.1698    (WHEN MIN. R.F.=1)  AT K=   3, I=   2, J=  30

 MAXIMUM STEPSIZE WHICH MEETS STABILITY CRITERION OF THE ADVECTION TERM
 (FOR PURE FINITE-DIFFERENCE OPTION, MIXELM=0) 
 = 0.1346    (WHEN MIN. R.F.=1)  AT K=   3, I=   2, J=  31


 TOTAL NUMBER OF POINT SOURCES/SINKS PRESENT IN THE FLOW MODEL =   240

 MAXIMUM STEPSIZE WHICH MEETS STABILITY CRITERION OF THE SINK & SOURCE TERM
 = 0.1000E+31(WHEN MIN. R.F.=1)  AT K=   0, I=   0, J=   0

 MAXIMUM STEPSIZE WHICH MEETS STABILITY CRITERION OF THE DISPERSION TERM
 = 0.7273E-02(WHEN MIN. R.F.=1)  AT K=   3, I=   2, J=  30
     1 CALLS TO GCG PACKAGE FOR TRANSPORT TIME STEP   4 IN FLOW TIME STEP  90 STRESS PERIOD   2
    10 TOTAL ITERATIONS
 
 SOLVING FOR HEAD 
 FLOW MODEL IS TRANSIENT
 FLOW MODEL CONTAINS CONSTANT-HEAD CELLS


 MAXIMUM STEPSIZE DURING WHICH ANY PARTICLE CANNOT MOVE MORE THAN ONE CELL
 = 0.1698    (WHEN MIN. R.F.=1)  AT K=   3, I=   2, J=  30

 MAXIMUM STEPSIZE WHICH MEETS STABILITY CRITERION OF THE ADVECTION TERM
 (FOR PURE FINITE-DIFFERENCE OPTION, MIXELM=0) 
 = 0.1346    (WHEN MIN. R.F.=1)  AT K=   3, I=   2, J=  31


 TOTAL NUMBER OF POINT SOURCES/SINKS PRESENT IN THE FLOW MODEL =   240

 MAXIMUM STEPSIZE WHICH MEETS STABILITY CRITERION OF THE SINK & SOURCE TERM
 = 0.1000E+31(WHEN MIN. R.F.=1)  AT K=   0, I=   0, J=   0

 MAXIMUM STEPSIZE WHICH MEETS STABILITY CRITERION OF THE DISPERSION TERM
 = 0.7273E-02(WHEN MIN. R.F.=1)  AT K=   3, I=   2, J=  30
     1 CALLS TO GCG PACKAGE FOR TRANSPORT TIME STEP   5 IN FLOW TIME STEP  90 STRESS PERIOD   2
    10 TOTAL ITERATIONS
 
 SOLVING FOR HEAD 
 FLOW MODEL IS TRANSIENT
 FLOW MODEL CONTAINS CONSTANT-HEAD CELLS


 MAXIMUM STEPSIZE DURING WHICH ANY PARTICLE CANNOT MOVE MORE THAN ONE CELL
 = 0.1698    (WHEN MIN. R.F.=1)  AT K=   3, I=   2, J=  30

 MAXIMUM STEPSIZE WHICH MEETS STABILITY CRITERION OF THE ADVECTION TERM
 (FOR PURE FINITE-DIFFERENCE OPTION, MIXELM=0) 
 = 0.1346    (WHEN MIN. R.F.=1)  AT K=   3, I=   2, J=  31


 TOTAL NUMBER OF POINT SOURCES/SINKS PRESENT IN THE FLOW MODEL =   240

 MAXIMUM STEPSIZE WHICH MEETS STABILITY CRITERION OF THE SINK & SOURCE TERM
 = 0.1000E+31(WHEN MIN. R.F.=1)  AT K=   0, I=   0, J=   0

 MAXIMUM STEPSIZE WHICH MEETS STABILITY CRITERION OF THE DISPERSION TERM
 = 0.7273E-02(WHEN MIN. R.F.=1)  AT K=   3, I=   2, J=  30
     1 CALLS TO GCG PACKAGE FOR TRANSPORT TIME STEP   6 IN FLOW TIME STEP  90 STRESS PERIOD   2
    10 TOTAL ITERATIONS
 
 SOLVING FOR HEAD 
 FLOW MODEL IS TRANSIENT
 FLOW MODEL CONTAINS CONSTANT-HEAD CELLS


 MAXIMUM STEPSIZE DURING WHICH ANY PARTICLE CANNOT MOVE MORE THAN ONE CELL
 = 0.1698    (WHEN MIN. R.F.=1)  AT K=   3, I=   2, J=  30

 MAXIMUM STEPSIZE WHICH MEETS STABILITY CRITERION OF THE ADVECTION TERM
 (FOR PURE FINITE-DIFFERENCE OPTION, MIXELM=0) 
 = 0.1346    (WHEN MIN. R.F.=1)  AT K=   3, I=   2, J=  31


 TOTAL NUMBER OF POINT SOURCES/SINKS PRESENT IN THE FLOW MODEL =   240

 MAXIMUM STEPSIZE WHICH MEETS STABILITY CRITERION OF THE SINK & SOURCE TERM
 = 0.1000E+31(WHEN MIN. R.F.=1)  AT K=   0, I=   0, J=   0

 MAXIMUM STEPSIZE WHICH MEETS STABILITY CRITERION OF THE DISPERSION TERM
 = 0.7273E-02(WHEN MIN. R.F.=1)  AT K=   3, I=   2, J=  30
     1 CALLS TO GCG PACKAGE FOR TRANSPORT TIME STEP   7 IN FLOW TIME STEP  90 STRESS PERIOD   2
    10 TOTAL ITERATIONS
 
 SOLVING FOR HEAD 
 FLOW MODEL IS TRANSIENT
 FLOW MODEL CONTAINS CONSTANT-HEAD CELLS


 MAXIMUM STEPSIZE DURING WHICH ANY PARTICLE CANNOT MOVE MORE THAN ONE CELL
 = 0.1698    (WHEN MIN. R.F.=1)  AT K=   3, I=   2, J=  30

 MAXIMUM STEPSIZE WHICH MEETS STABILITY CRITERION OF THE ADVECTION TERM
 (FOR PURE FINITE-DIFFERENCE OPTION, MIXELM=0) 
 = 0.1346    (WHEN MIN. R.F.=1)  AT K=   3, I=   2, J=  31


 TOTAL NUMBER OF POINT SOURCES/SINKS PRESENT IN THE FLOW MODEL =   240

 MAXIMUM STEPSIZE WHICH MEETS STABILITY CRITERION OF THE SINK & SOURCE TERM
 = 0.1000E+31(WHEN MIN. R.F.=1)  AT K=   0, I=   0, J=   0

 MAXIMUM STEPSIZE WHICH MEETS STABILITY CRITERION OF THE DISPERSION TERM
 = 0.7273E-02(WHEN MIN. R.F.=1)  AT K=   3, I=   2, J=  30
     1 CALLS TO GCG PACKAGE FOR TRANSPORT TIME STEP   8 IN FLOW TIME STEP  90 STRESS PERIOD   2
     9 TOTAL ITERATIONS
  MAXIMUM CONCENTRATION CHANGES FOR EACH ITERATION:
  MAX. CHANGE LAYER,ROW,COL MAX. CHANGE LAYER,ROW,COL MAX. CHANGE LAYER,ROW,COL MAX. CHANGE LAYER,ROW,COL MAX. CHANGE LAYER,ROW,COL
 ------------------------------------------------------------------------------------------------------------------------------------
   0.5857E-03 ( 14,  1, 59)  0.4980E-04 (  9,  1, 57)  0.1327E-04 (  5,  2, 62)  0.4957E-05 (  5,  2, 59)  0.1528E-05 (  6,  1, 62)
   0.7834E-06 (  7,  1, 59)  0.2710E-06 (  3,  2, 30)  0.1809E-06 (  7,  1, 59)  0.9777E-07 (  3,  2, 28)


                                          ================================================
                                                         FROM TIME =   91.000     TO    92.000    

 
 SOLVING FOR HEAD 
 FLOW MODEL IS TRANSIENT
 FLOW MODEL CONTAINS CONSTANT-HEAD CELLS


 MAXIMUM STEPSIZE DURING WHICH ANY PARTICLE CANNOT MOVE MORE THAN ONE CELL
 = 0.1698    (WHEN MIN. R.F.=1)  AT K=   3, I=   2, J=  30

 MAXIMUM STEPSIZE WHICH MEETS STABILITY CRITERION OF THE ADVECTION TERM
 (FOR PURE FINITE-DIFFERENCE OPTION, MIXELM=0) 
 = 0.1346    (WHEN MIN. R.F.=1)  AT K=   3, I=   2, J=  31


 TOTAL NUMBER OF POINT SOURCES/SINKS PRESENT IN THE FLOW MODEL =   240

 MAXIMUM STEPSIZE WHICH MEETS STABILITY CRITERION OF THE SINK & SOURCE TERM
 = 0.1000E+31(WHEN MIN. R.F.=1)  AT K=   0, I=   0, J=   0

 MAXIMUM STEPSIZE WHICH MEETS STABILITY CRITERION OF THE DISPERSION TERM
 = 0.7273E-02(WHEN MIN. R.F.=1)  AT K=   3, I=   2, J=  30


     1 CALLS TO GCG PACKAGE FOR TRANSPORT TIME STEP   1 IN FLOW TIME STEP  91 STRESS PERIOD   2
    10 TOTAL ITERATIONS

 NO OUTPUT CONTROL FOR STRESS PERIOD    2   TIME STEP  91
 
 SOLVING FOR HEAD 
 FLOW MODEL IS TRANSIENT
 FLOW MODEL CONTAINS CONSTANT-HEAD CELLS


 MAXIMUM STEPSIZE DURING WHICH ANY PARTICLE CANNOT MOVE MORE THAN ONE CELL
 = 0.1698    (WHEN MIN. R.F.=1)  AT K=   3, I=   2, J=  30

 MAXIMUM STEPSIZE WHICH MEETS STABILITY CRITERION OF THE ADVECTION TERM
 (FOR PURE FINITE-DIFFERENCE OPTION, MIXELM=0) 
 = 0.1346    (WHEN MIN. R.F.=1)  AT K=   3, I=   2, J=  31


 TOTAL NUMBER OF POINT SOURCES/SINKS PRESENT IN THE FLOW MODEL =   240

 MAXIMUM STEPSIZE WHICH MEETS STABILITY CRITERION OF THE SINK & SOURCE TERM
 = 0.1000E+31(WHEN MIN. R.F.=1)  AT K=   0, I=   0, J=   0

 MAXIMUM STEPSIZE WHICH MEETS STABILITY CRITERION OF THE DISPERSION TERM
 = 0.7273E-02(WHEN MIN. R.F.=1)  AT K=   3, I=   2, J=  30
     1 CALLS TO GCG PACKAGE FOR TRANSPORT TIME STEP   2 IN FLOW TIME STEP  91 STRESS PERIOD   2
    10 TOTAL ITERATIONS
 
 SOLVING FOR HEAD 
 FLOW MODEL IS TRANSIENT
 FLOW MODEL CONTAINS CONSTANT-HEAD CELLS


 MAXIMUM STEPSIZE DURING WHICH ANY PARTICLE CANNOT MOVE MORE THAN ONE CELL
 = 0.1698    (WHEN MIN. R.F.=1)  AT K=   3, I=   2, J=  30

 MAXIMUM STEPSIZE WHICH MEETS STABILITY CRITERION OF THE ADVECTION TERM
 (FOR PURE FINITE-DIFFERENCE OPTION, MIXELM=0) 
 = 0.1346    (WHEN MIN. R.F.=1)  AT K=   3, I=   2, J=  31


 TOTAL NUMBER OF POINT SOURCES/SINKS PRESENT IN THE FLOW MODEL =   240

 MAXIMUM STEPSIZE WHICH MEETS STABILITY CRITERION OF THE SINK & SOURCE TERM
 = 0.1000E+31(WHEN MIN. R.F.=1)  AT K=   0, I=   0, J=   0

 MAXIMUM STEPSIZE WHICH MEETS STABILITY CRITERION OF THE DISPERSION TERM
 = 0.7273E-02(WHEN MIN. R.F.=1)  AT K=   3, I=   2, J=  30
     1 CALLS TO GCG PACKAGE FOR TRANSPORT TIME STEP   3 IN FLOW TIME STEP  91 STRESS PERIOD   2
    10 TOTAL ITERATIONS
 
 SOLVING FOR HEAD 
 FLOW MODEL IS TRANSIENT
 FLOW MODEL CONTAINS CONSTANT-HEAD CELLS


 MAXIMUM STEPSIZE DURING WHICH ANY PARTICLE CANNOT MOVE MORE THAN ONE CELL
 = 0.1698    (WHEN MIN. R.F.=1)  AT K=   3, I=   2, J=  30

 MAXIMUM STEPSIZE WHICH MEETS STABILITY CRITERION OF THE ADVECTION TERM
 (FOR PURE FINITE-DIFFERENCE OPTION, MIXELM=0) 
 = 0.1346    (WHEN MIN. R.F.=1)  AT K=   3, I=   2, J=  31


 TOTAL NUMBER OF POINT SOURCES/SINKS PRESENT IN THE FLOW MODEL =   240

 MAXIMUM STEPSIZE WHICH MEETS STABILITY CRITERION OF THE SINK & SOURCE TERM
 = 0.1000E+31(WHEN MIN. R.F.=1)  AT K=   0, I=   0, J=   0

 MAXIMUM STEPSIZE WHICH MEETS STABILITY CRITERION OF THE DISPERSION TERM
 = 0.7273E-02(WHEN MIN. R.F.=1)  AT K=   3, I=   2, J=  30
     1 CALLS TO GCG PACKAGE FOR TRANSPORT TIME STEP   4 IN FLOW TIME STEP  91 STRESS PERIOD   2
    10 TOTAL ITERATIONS
 
 SOLVING FOR HEAD 
 FLOW MODEL IS TRANSIENT
 FLOW MODEL CONTAINS CONSTANT-HEAD CELLS


 MAXIMUM STEPSIZE DURING WHICH ANY PARTICLE CANNOT MOVE MORE THAN ONE CELL
 = 0.1698    (WHEN MIN. R.F.=1)  AT K=   3, I=   2, J=  30

 MAXIMUM STEPSIZE WHICH MEETS STABILITY CRITERION OF THE ADVECTION TERM
 (FOR PURE FINITE-DIFFERENCE OPTION, MIXELM=0) 
 = 0.1346    (WHEN MIN. R.F.=1)  AT K=   3, I=   2, J=  31


 TOTAL NUMBER OF POINT SOURCES/SINKS PRESENT IN THE FLOW MODEL =   240

 MAXIMUM STEPSIZE WHICH MEETS STABILITY CRITERION OF THE SINK & SOURCE TERM
 = 0.1000E+31(WHEN MIN. R.F.=1)  AT K=   0, I=   0, J=   0

 MAXIMUM STEPSIZE WHICH MEETS STABILITY CRITERION OF THE DISPERSION TERM
 = 0.7273E-02(WHEN MIN. R.F.=1)  AT K=   3, I=   2, J=  30
     1 CALLS TO GCG PACKAGE FOR TRANSPORT TIME STEP   5 IN FLOW TIME STEP  91 STRESS PERIOD   2
    10 TOTAL ITERATIONS
 
 SOLVING FOR HEAD 
 FLOW MODEL IS TRANSIENT
 FLOW MODEL CONTAINS CONSTANT-HEAD CELLS


 MAXIMUM STEPSIZE DURING WHICH ANY PARTICLE CANNOT MOVE MORE THAN ONE CELL
 = 0.1698    (WHEN MIN. R.F.=1)  AT K=   3, I=   2, J=  30

 MAXIMUM STEPSIZE WHICH MEETS STABILITY CRITERION OF THE ADVECTION TERM
 (FOR PURE FINITE-DIFFERENCE OPTION, MIXELM=0) 
 = 0.1346    (WHEN MIN. R.F.=1)  AT K=   3, I=   2, J=  31


 TOTAL NUMBER OF POINT SOURCES/SINKS PRESENT IN THE FLOW MODEL =   240

 MAXIMUM STEPSIZE WHICH MEETS STABILITY CRITERION OF THE SINK & SOURCE TERM
 = 0.1000E+31(WHEN MIN. R.F.=1)  AT K=   0, I=   0, J=   0

 MAXIMUM STEPSIZE WHICH MEETS STABILITY CRITERION OF THE DISPERSION TERM
 = 0.7273E-02(WHEN MIN. R.F.=1)  AT K=   3, I=   2, J=  30
     1 CALLS TO GCG PACKAGE FOR TRANSPORT TIME STEP   6 IN FLOW TIME STEP  91 STRESS PERIOD   2
    10 TOTAL ITERATIONS
 
 SOLVING FOR HEAD 
 FLOW MODEL IS TRANSIENT
 FLOW MODEL CONTAINS CONSTANT-HEAD CELLS


 MAXIMUM STEPSIZE DURING WHICH ANY PARTICLE CANNOT MOVE MORE THAN ONE CELL
 = 0.1698    (WHEN MIN. R.F.=1)  AT K=   3, I=   2, J=  30

 MAXIMUM STEPSIZE WHICH MEETS STABILITY CRITERION OF THE ADVECTION TERM
 (FOR PURE FINITE-DIFFERENCE OPTION, MIXELM=0) 
 = 0.1346    (WHEN MIN. R.F.=1)  AT K=   3, I=   2, J=  31


 TOTAL NUMBER OF POINT SOURCES/SINKS PRESENT IN THE FLOW MODEL =   240

 MAXIMUM STEPSIZE WHICH MEETS STABILITY CRITERION OF THE SINK & SOURCE TERM
 = 0.1000E+31(WHEN MIN. R.F.=1)  AT K=   0, I=   0, J=   0

 MAXIMUM STEPSIZE WHICH MEETS STABILITY CRITERION OF THE DISPERSION TERM
 = 0.7273E-02(WHEN MIN. R.F.=1)  AT K=   3, I=   2, J=  30
     1 CALLS TO GCG PACKAGE FOR TRANSPORT TIME STEP   7 IN FLOW TIME STEP  91 STRESS PERIOD   2
    10 TOTAL ITERATIONS
 
 SOLVING FOR HEAD 
 FLOW MODEL IS TRANSIENT
 FLOW MODEL CONTAINS CONSTANT-HEAD CELLS


 MAXIMUM STEPSIZE DURING WHICH ANY PARTICLE CANNOT MOVE MORE THAN ONE CELL
 = 0.1698    (WHEN MIN. R.F.=1)  AT K=   3, I=   2, J=  30

 MAXIMUM STEPSIZE WHICH MEETS STABILITY CRITERION OF THE ADVECTION TERM
 (FOR PURE FINITE-DIFFERENCE OPTION, MIXELM=0) 
 = 0.1346    (WHEN MIN. R.F.=1)  AT K=   3, I=   2, J=  31


 TOTAL NUMBER OF POINT SOURCES/SINKS PRESENT IN THE FLOW MODEL =   240

 MAXIMUM STEPSIZE WHICH MEETS STABILITY CRITERION OF THE SINK & SOURCE TERM
 = 0.1000E+31(WHEN MIN. R.F.=1)  AT K=   0, I=   0, J=   0

 MAXIMUM STEPSIZE WHICH MEETS STABILITY CRITERION OF THE DISPERSION TERM
 = 0.7273E-02(WHEN MIN. R.F.=1)  AT K=   3, I=   2, J=  30
     1 CALLS TO GCG PACKAGE FOR TRANSPORT TIME STEP   8 IN FLOW TIME STEP  91 STRESS PERIOD   2
     9 TOTAL ITERATIONS
  MAXIMUM CONCENTRATION CHANGES FOR EACH ITERATION:
  MAX. CHANGE LAYER,ROW,COL MAX. CHANGE LAYER,ROW,COL MAX. CHANGE LAYER,ROW,COL MAX. CHANGE LAYER,ROW,COL MAX. CHANGE LAYER,ROW,COL
 ------------------------------------------------------------------------------------------------------------------------------------
   0.5912E-03 ( 14,  1, 59)  0.4844E-04 (  9,  1, 57)  0.1295E-04 (  5,  2, 62)  0.4838E-05 (  5,  2, 59)  0.1486E-05 (  6,  1, 62)
   0.7612E-06 (  7,  1, 59)  0.2603E-06 (  3,  3, 28)  0.1734E-06 (  7,  1, 59)  0.9272E-07 (  3,  2, 27)


                                          ================================================
                                                         FROM TIME =   92.000     TO    93.000    

 
 SOLVING FOR HEAD 
 FLOW MODEL IS TRANSIENT
 FLOW MODEL CONTAINS CONSTANT-HEAD CELLS


 MAXIMUM STEPSIZE DURING WHICH ANY PARTICLE CANNOT MOVE MORE THAN ONE CELL
 = 0.1698    (WHEN MIN. R.F.=1)  AT K=   3, I=   2, J=  30

 MAXIMUM STEPSIZE WHICH MEETS STABILITY CRITERION OF THE ADVECTION TERM
 (FOR PURE FINITE-DIFFERENCE OPTION, MIXELM=0) 
 = 0.1346    (WHEN MIN. R.F.=1)  AT K=   3, I=   2, J=  31


 TOTAL NUMBER OF POINT SOURCES/SINKS PRESENT IN THE FLOW MODEL =   240

 MAXIMUM STEPSIZE WHICH MEETS STABILITY CRITERION OF THE SINK & SOURCE TERM
 = 0.1000E+31(WHEN MIN. R.F.=1)  AT K=   0, I=   0, J=   0

 MAXIMUM STEPSIZE WHICH MEETS STABILITY CRITERION OF THE DISPERSION TERM
 = 0.7273E-02(WHEN MIN. R.F.=1)  AT K=   3, I=   2, J=  30


     1 CALLS TO GCG PACKAGE FOR TRANSPORT TIME STEP   1 IN FLOW TIME STEP  92 STRESS PERIOD   2
    10 TOTAL ITERATIONS

 NO OUTPUT CONTROL FOR STRESS PERIOD    2   TIME STEP  92
 
 SOLVING FOR HEAD 
 FLOW MODEL IS TRANSIENT
 FLOW MODEL CONTAINS CONSTANT-HEAD CELLS


 MAXIMUM STEPSIZE DURING WHICH ANY PARTICLE CANNOT MOVE MORE THAN ONE CELL
 = 0.1698    (WHEN MIN. R.F.=1)  AT K=   3, I=   2, J=  30

 MAXIMUM STEPSIZE WHICH MEETS STABILITY CRITERION OF THE ADVECTION TERM
 (FOR PURE FINITE-DIFFERENCE OPTION, MIXELM=0) 
 = 0.1346    (WHEN MIN. R.F.=1)  AT K=   3, I=   2, J=  31


 TOTAL NUMBER OF POINT SOURCES/SINKS PRESENT IN THE FLOW MODEL =   240

 MAXIMUM STEPSIZE WHICH MEETS STABILITY CRITERION OF THE SINK & SOURCE TERM
 = 0.1000E+31(WHEN MIN. R.F.=1)  AT K=   0, I=   0, J=   0

 MAXIMUM STEPSIZE WHICH MEETS STABILITY CRITERION OF THE DISPERSION TERM
 = 0.7273E-02(WHEN MIN. R.F.=1)  AT K=   3, I=   2, J=  30
     1 CALLS TO GCG PACKAGE FOR TRANSPORT TIME STEP   2 IN FLOW TIME STEP  92 STRESS PERIOD   2
    10 TOTAL ITERATIONS
 
 SOLVING FOR HEAD 
 FLOW MODEL IS TRANSIENT
 FLOW MODEL CONTAINS CONSTANT-HEAD CELLS


 MAXIMUM STEPSIZE DURING WHICH ANY PARTICLE CANNOT MOVE MORE THAN ONE CELL
 = 0.1698    (WHEN MIN. R.F.=1)  AT K=   3, I=   2, J=  30

 MAXIMUM STEPSIZE WHICH MEETS STABILITY CRITERION OF THE ADVECTION TERM
 (FOR PURE FINITE-DIFFERENCE OPTION, MIXELM=0) 
 = 0.1346    (WHEN MIN. R.F.=1)  AT K=   3, I=   2, J=  31


 TOTAL NUMBER OF POINT SOURCES/SINKS PRESENT IN THE FLOW MODEL =   240

 MAXIMUM STEPSIZE WHICH MEETS STABILITY CRITERION OF THE SINK & SOURCE TERM
 = 0.1000E+31(WHEN MIN. R.F.=1)  AT K=   0, I=   0, J=   0

 MAXIMUM STEPSIZE WHICH MEETS STABILITY CRITERION OF THE DISPERSION TERM
 = 0.7273E-02(WHEN MIN. R.F.=1)  AT K=   3, I=   2, J=  30
     1 CALLS TO GCG PACKAGE FOR TRANSPORT TIME STEP   3 IN FLOW TIME STEP  92 STRESS PERIOD   2
    10 TOTAL ITERATIONS
 
 SOLVING FOR HEAD 
 FLOW MODEL IS TRANSIENT
 FLOW MODEL CONTAINS CONSTANT-HEAD CELLS


 MAXIMUM STEPSIZE DURING WHICH ANY PARTICLE CANNOT MOVE MORE THAN ONE CELL
 = 0.1698    (WHEN MIN. R.F.=1)  AT K=   3, I=   2, J=  30

 MAXIMUM STEPSIZE WHICH MEETS STABILITY CRITERION OF THE ADVECTION TERM
 (FOR PURE FINITE-DIFFERENCE OPTION, MIXELM=0) 
 = 0.1346    (WHEN MIN. R.F.=1)  AT K=   3, I=   2, J=  31


 TOTAL NUMBER OF POINT SOURCES/SINKS PRESENT IN THE FLOW MODEL =   240

 MAXIMUM STEPSIZE WHICH MEETS STABILITY CRITERION OF THE SINK & SOURCE TERM
 = 0.1000E+31(WHEN MIN. R.F.=1)  AT K=   0, I=   0, J=   0

 MAXIMUM STEPSIZE WHICH MEETS STABILITY CRITERION OF THE DISPERSION TERM
 = 0.7273E-02(WHEN MIN. R.F.=1)  AT K=   3, I=   2, J=  30
     1 CALLS TO GCG PACKAGE FOR TRANSPORT TIME STEP   4 IN FLOW TIME STEP  92 STRESS PERIOD   2
    10 TOTAL ITERATIONS
 
 SOLVING FOR HEAD 
 FLOW MODEL IS TRANSIENT
 FLOW MODEL CONTAINS CONSTANT-HEAD CELLS


 MAXIMUM STEPSIZE DURING WHICH ANY PARTICLE CANNOT MOVE MORE THAN ONE CELL
 = 0.1698    (WHEN MIN. R.F.=1)  AT K=   3, I=   2, J=  30

 MAXIMUM STEPSIZE WHICH MEETS STABILITY CRITERION OF THE ADVECTION TERM
 (FOR PURE FINITE-DIFFERENCE OPTION, MIXELM=0) 
 = 0.1346    (WHEN MIN. R.F.=1)  AT K=   3, I=   2, J=  31


 TOTAL NUMBER OF POINT SOURCES/SINKS PRESENT IN THE FLOW MODEL =   240

 MAXIMUM STEPSIZE WHICH MEETS STABILITY CRITERION OF THE SINK & SOURCE TERM
 = 0.1000E+31(WHEN MIN. R.F.=1)  AT K=   0, I=   0, J=   0

 MAXIMUM STEPSIZE WHICH MEETS STABILITY CRITERION OF THE DISPERSION TERM
 = 0.7273E-02(WHEN MIN. R.F.=1)  AT K=   3, I=   2, J=  30
     1 CALLS TO GCG PACKAGE FOR TRANSPORT TIME STEP   5 IN FLOW TIME STEP  92 STRESS PERIOD   2
    10 TOTAL ITERATIONS
 
 SOLVING FOR HEAD 
 FLOW MODEL IS TRANSIENT
 FLOW MODEL CONTAINS CONSTANT-HEAD CELLS


 MAXIMUM STEPSIZE DURING WHICH ANY PARTICLE CANNOT MOVE MORE THAN ONE CELL
 = 0.1698    (WHEN MIN. R.F.=1)  AT K=   3, I=   2, J=  30

 MAXIMUM STEPSIZE WHICH MEETS STABILITY CRITERION OF THE ADVECTION TERM
 (FOR PURE FINITE-DIFFERENCE OPTION, MIXELM=0) 
 = 0.1346    (WHEN MIN. R.F.=1)  AT K=   3, I=   2, J=  31


 TOTAL NUMBER OF POINT SOURCES/SINKS PRESENT IN THE FLOW MODEL =   240

 MAXIMUM STEPSIZE WHICH MEETS STABILITY CRITERION OF THE SINK & SOURCE TERM
 = 0.1000E+31(WHEN MIN. R.F.=1)  AT K=   0, I=   0, J=   0

 MAXIMUM STEPSIZE WHICH MEETS STABILITY CRITERION OF THE DISPERSION TERM
 = 0.7273E-02(WHEN MIN. R.F.=1)  AT K=   3, I=   2, J=  30
     1 CALLS TO GCG PACKAGE FOR TRANSPORT TIME STEP   6 IN FLOW TIME STEP  92 STRESS PERIOD   2
    10 TOTAL ITERATIONS
 
 SOLVING FOR HEAD 
 FLOW MODEL IS TRANSIENT
 FLOW MODEL CONTAINS CONSTANT-HEAD CELLS


 MAXIMUM STEPSIZE DURING WHICH ANY PARTICLE CANNOT MOVE MORE THAN ONE CELL
 = 0.1698    (WHEN MIN. R.F.=1)  AT K=   3, I=   2, J=  30

 MAXIMUM STEPSIZE WHICH MEETS STABILITY CRITERION OF THE ADVECTION TERM
 (FOR PURE FINITE-DIFFERENCE OPTION, MIXELM=0) 
 = 0.1346    (WHEN MIN. R.F.=1)  AT K=   3, I=   2, J=  31


 TOTAL NUMBER OF POINT SOURCES/SINKS PRESENT IN THE FLOW MODEL =   240

 MAXIMUM STEPSIZE WHICH MEETS STABILITY CRITERION OF THE SINK & SOURCE TERM
 = 0.1000E+31(WHEN MIN. R.F.=1)  AT K=   0, I=   0, J=   0

 MAXIMUM STEPSIZE WHICH MEETS STABILITY CRITERION OF THE DISPERSION TERM
 = 0.7273E-02(WHEN MIN. R.F.=1)  AT K=   3, I=   2, J=  30
     1 CALLS TO GCG PACKAGE FOR TRANSPORT TIME STEP   7 IN FLOW TIME STEP  92 STRESS PERIOD   2
    10 TOTAL ITERATIONS
 
 SOLVING FOR HEAD 
 FLOW MODEL IS TRANSIENT
 FLOW MODEL CONTAINS CONSTANT-HEAD CELLS


 MAXIMUM STEPSIZE DURING WHICH ANY PARTICLE CANNOT MOVE MORE THAN ONE CELL
 = 0.1698    (WHEN MIN. R.F.=1)  AT K=   3, I=   2, J=  30

 MAXIMUM STEPSIZE WHICH MEETS STABILITY CRITERION OF THE ADVECTION TERM
 (FOR PURE FINITE-DIFFERENCE OPTION, MIXELM=0) 
 = 0.1346    (WHEN MIN. R.F.=1)  AT K=   3, I=   2, J=  31


 TOTAL NUMBER OF POINT SOURCES/SINKS PRESENT IN THE FLOW MODEL =   240

 MAXIMUM STEPSIZE WHICH MEETS STABILITY CRITERION OF THE SINK & SOURCE TERM
 = 0.1000E+31(WHEN MIN. R.F.=1)  AT K=   0, I=   0, J=   0

 MAXIMUM STEPSIZE WHICH MEETS STABILITY CRITERION OF THE DISPERSION TERM
 = 0.7273E-02(WHEN MIN. R.F.=1)  AT K=   3, I=   2, J=  30
     1 CALLS TO GCG PACKAGE FOR TRANSPORT TIME STEP   8 IN FLOW TIME STEP  92 STRESS PERIOD   2
     9 TOTAL ITERATIONS
  MAXIMUM CONCENTRATION CHANGES FOR EACH ITERATION:
  MAX. CHANGE LAYER,ROW,COL MAX. CHANGE LAYER,ROW,COL MAX. CHANGE LAYER,ROW,COL MAX. CHANGE LAYER,ROW,COL MAX. CHANGE LAYER,ROW,COL
 ------------------------------------------------------------------------------------------------------------------------------------
   0.5962E-03 ( 14,  1, 59)  0.4711E-04 (  9,  1, 57)  0.1264E-04 (  5,  2, 62)  0.4723E-05 (  5,  2, 59)  0.1443E-05 (  6,  1, 62)
   0.7184E-06 (  7,  1, 59)  0.2565E-06 (  3,  2, 30)  0.1710E-06 (  7,  1, 59)  0.9018E-07 (  4,  2, 59)


                                          ================================================
                                                         FROM TIME =   93.000     TO    94.000    

 
 SOLVING FOR HEAD 
 FLOW MODEL IS TRANSIENT
 FLOW MODEL CONTAINS CONSTANT-HEAD CELLS


 MAXIMUM STEPSIZE DURING WHICH ANY PARTICLE CANNOT MOVE MORE THAN ONE CELL
 = 0.1698    (WHEN MIN. R.F.=1)  AT K=   3, I=   2, J=  30

 MAXIMUM STEPSIZE WHICH MEETS STABILITY CRITERION OF THE ADVECTION TERM
 (FOR PURE FINITE-DIFFERENCE OPTION, MIXELM=0) 
 = 0.1346    (WHEN MIN. R.F.=1)  AT K=   3, I=   2, J=  31


 TOTAL NUMBER OF POINT SOURCES/SINKS PRESENT IN THE FLOW MODEL =   240

 MAXIMUM STEPSIZE WHICH MEETS STABILITY CRITERION OF THE SINK & SOURCE TERM
 = 0.1000E+31(WHEN MIN. R.F.=1)  AT K=   0, I=   0, J=   0

 MAXIMUM STEPSIZE WHICH MEETS STABILITY CRITERION OF THE DISPERSION TERM
 = 0.7273E-02(WHEN MIN. R.F.=1)  AT K=   3, I=   2, J=  30


     1 CALLS TO GCG PACKAGE FOR TRANSPORT TIME STEP   1 IN FLOW TIME STEP  93 STRESS PERIOD   2
    10 TOTAL ITERATIONS

 NO OUTPUT CONTROL FOR STRESS PERIOD    2   TIME STEP  93
 
 SOLVING FOR HEAD 
 FLOW MODEL IS TRANSIENT
 FLOW MODEL CONTAINS CONSTANT-HEAD CELLS


 MAXIMUM STEPSIZE DURING WHICH ANY PARTICLE CANNOT MOVE MORE THAN ONE CELL
 = 0.1698    (WHEN MIN. R.F.=1)  AT K=   3, I=   2, J=  30

 MAXIMUM STEPSIZE WHICH MEETS STABILITY CRITERION OF THE ADVECTION TERM
 (FOR PURE FINITE-DIFFERENCE OPTION, MIXELM=0) 
 = 0.1346    (WHEN MIN. R.F.=1)  AT K=   3, I=   2, J=  31


 TOTAL NUMBER OF POINT SOURCES/SINKS PRESENT IN THE FLOW MODEL =   240

 MAXIMUM STEPSIZE WHICH MEETS STABILITY CRITERION OF THE SINK & SOURCE TERM
 = 0.1000E+31(WHEN MIN. R.F.=1)  AT K=   0, I=   0, J=   0

 MAXIMUM STEPSIZE WHICH MEETS STABILITY CRITERION OF THE DISPERSION TERM
 = 0.7273E-02(WHEN MIN. R.F.=1)  AT K=   3, I=   2, J=  30
     1 CALLS TO GCG PACKAGE FOR TRANSPORT TIME STEP   2 IN FLOW TIME STEP  93 STRESS PERIOD   2
    10 TOTAL ITERATIONS
 
 SOLVING FOR HEAD 
 FLOW MODEL IS TRANSIENT
 FLOW MODEL CONTAINS CONSTANT-HEAD CELLS


 MAXIMUM STEPSIZE DURING WHICH ANY PARTICLE CANNOT MOVE MORE THAN ONE CELL
 = 0.1698    (WHEN MIN. R.F.=1)  AT K=   3, I=   2, J=  30

 MAXIMUM STEPSIZE WHICH MEETS STABILITY CRITERION OF THE ADVECTION TERM
 (FOR PURE FINITE-DIFFERENCE OPTION, MIXELM=0) 
 = 0.1346    (WHEN MIN. R.F.=1)  AT K=   3, I=   2, J=  31


 TOTAL NUMBER OF POINT SOURCES/SINKS PRESENT IN THE FLOW MODEL =   240

 MAXIMUM STEPSIZE WHICH MEETS STABILITY CRITERION OF THE SINK & SOURCE TERM
 = 0.1000E+31(WHEN MIN. R.F.=1)  AT K=   0, I=   0, J=   0

 MAXIMUM STEPSIZE WHICH MEETS STABILITY CRITERION OF THE DISPERSION TERM
 = 0.7273E-02(WHEN MIN. R.F.=1)  AT K=   3, I=   2, J=  30
     1 CALLS TO GCG PACKAGE FOR TRANSPORT TIME STEP   3 IN FLOW TIME STEP  93 STRESS PERIOD   2
    10 TOTAL ITERATIONS
 
 SOLVING FOR HEAD 
 FLOW MODEL IS TRANSIENT
 FLOW MODEL CONTAINS CONSTANT-HEAD CELLS


 MAXIMUM STEPSIZE DURING WHICH ANY PARTICLE CANNOT MOVE MORE THAN ONE CELL
 = 0.1698    (WHEN MIN. R.F.=1)  AT K=   3, I=   2, J=  30

 MAXIMUM STEPSIZE WHICH MEETS STABILITY CRITERION OF THE ADVECTION TERM
 (FOR PURE FINITE-DIFFERENCE OPTION, MIXELM=0) 
 = 0.1346    (WHEN MIN. R.F.=1)  AT K=   3, I=   2, J=  31


 TOTAL NUMBER OF POINT SOURCES/SINKS PRESENT IN THE FLOW MODEL =   240

 MAXIMUM STEPSIZE WHICH MEETS STABILITY CRITERION OF THE SINK & SOURCE TERM
 = 0.1000E+31(WHEN MIN. R.F.=1)  AT K=   0, I=   0, J=   0

 MAXIMUM STEPSIZE WHICH MEETS STABILITY CRITERION OF THE DISPERSION TERM
 = 0.7273E-02(WHEN MIN. R.F.=1)  AT K=   3, I=   2, J=  30
     1 CALLS TO GCG PACKAGE FOR TRANSPORT TIME STEP   4 IN FLOW TIME STEP  93 STRESS PERIOD   2
    10 TOTAL ITERATIONS
 
 SOLVING FOR HEAD 
 FLOW MODEL IS TRANSIENT
 FLOW MODEL CONTAINS CONSTANT-HEAD CELLS


 MAXIMUM STEPSIZE DURING WHICH ANY PARTICLE CANNOT MOVE MORE THAN ONE CELL
 = 0.1698    (WHEN MIN. R.F.=1)  AT K=   3, I=   2, J=  30

 MAXIMUM STEPSIZE WHICH MEETS STABILITY CRITERION OF THE ADVECTION TERM
 (FOR PURE FINITE-DIFFERENCE OPTION, MIXELM=0) 
 = 0.1346    (WHEN MIN. R.F.=1)  AT K=   3, I=   2, J=  31


 TOTAL NUMBER OF POINT SOURCES/SINKS PRESENT IN THE FLOW MODEL =   240

 MAXIMUM STEPSIZE WHICH MEETS STABILITY CRITERION OF THE SINK & SOURCE TERM
 = 0.1000E+31(WHEN MIN. R.F.=1)  AT K=   0, I=   0, J=   0

 MAXIMUM STEPSIZE WHICH MEETS STABILITY CRITERION OF THE DISPERSION TERM
 = 0.7273E-02(WHEN MIN. R.F.=1)  AT K=   3, I=   2, J=  30
     1 CALLS TO GCG PACKAGE FOR TRANSPORT TIME STEP   5 IN FLOW TIME STEP  93 STRESS PERIOD   2
    10 TOTAL ITERATIONS
 
 SOLVING FOR HEAD 
 FLOW MODEL IS TRANSIENT
 FLOW MODEL CONTAINS CONSTANT-HEAD CELLS


 MAXIMUM STEPSIZE DURING WHICH ANY PARTICLE CANNOT MOVE MORE THAN ONE CELL
 = 0.1698    (WHEN MIN. R.F.=1)  AT K=   3, I=   2, J=  30

 MAXIMUM STEPSIZE WHICH MEETS STABILITY CRITERION OF THE ADVECTION TERM
 (FOR PURE FINITE-DIFFERENCE OPTION, MIXELM=0) 
 = 0.1346    (WHEN MIN. R.F.=1)  AT K=   3, I=   2, J=  31


 TOTAL NUMBER OF POINT SOURCES/SINKS PRESENT IN THE FLOW MODEL =   240

 MAXIMUM STEPSIZE WHICH MEETS STABILITY CRITERION OF THE SINK & SOURCE TERM
 = 0.1000E+31(WHEN MIN. R.F.=1)  AT K=   0, I=   0, J=   0

 MAXIMUM STEPSIZE WHICH MEETS STABILITY CRITERION OF THE DISPERSION TERM
 = 0.7273E-02(WHEN MIN. R.F.=1)  AT K=   3, I=   2, J=  30
     1 CALLS TO GCG PACKAGE FOR TRANSPORT TIME STEP   6 IN FLOW TIME STEP  93 STRESS PERIOD   2
    10 TOTAL ITERATIONS
 
 SOLVING FOR HEAD 
 FLOW MODEL IS TRANSIENT
 FLOW MODEL CONTAINS CONSTANT-HEAD CELLS


 MAXIMUM STEPSIZE DURING WHICH ANY PARTICLE CANNOT MOVE MORE THAN ONE CELL
 = 0.1698    (WHEN MIN. R.F.=1)  AT K=   3, I=   2, J=  30

 MAXIMUM STEPSIZE WHICH MEETS STABILITY CRITERION OF THE ADVECTION TERM
 (FOR PURE FINITE-DIFFERENCE OPTION, MIXELM=0) 
 = 0.1346    (WHEN MIN. R.F.=1)  AT K=   3, I=   2, J=  31


 TOTAL NUMBER OF POINT SOURCES/SINKS PRESENT IN THE FLOW MODEL =   240

 MAXIMUM STEPSIZE WHICH MEETS STABILITY CRITERION OF THE SINK & SOURCE TERM
 = 0.1000E+31(WHEN MIN. R.F.=1)  AT K=   0, I=   0, J=   0

 MAXIMUM STEPSIZE WHICH MEETS STABILITY CRITERION OF THE DISPERSION TERM
 = 0.7273E-02(WHEN MIN. R.F.=1)  AT K=   3, I=   2, J=  30
     1 CALLS TO GCG PACKAGE FOR TRANSPORT TIME STEP   7 IN FLOW TIME STEP  93 STRESS PERIOD   2
    10 TOTAL ITERATIONS
 
 SOLVING FOR HEAD 
 FLOW MODEL IS TRANSIENT
 FLOW MODEL CONTAINS CONSTANT-HEAD CELLS


 MAXIMUM STEPSIZE DURING WHICH ANY PARTICLE CANNOT MOVE MORE THAN ONE CELL
 = 0.1698    (WHEN MIN. R.F.=1)  AT K=   3, I=   2, J=  30

 MAXIMUM STEPSIZE WHICH MEETS STABILITY CRITERION OF THE ADVECTION TERM
 (FOR PURE FINITE-DIFFERENCE OPTION, MIXELM=0) 
 = 0.1346    (WHEN MIN. R.F.=1)  AT K=   3, I=   2, J=  31


 TOTAL NUMBER OF POINT SOURCES/SINKS PRESENT IN THE FLOW MODEL =   240

 MAXIMUM STEPSIZE WHICH MEETS STABILITY CRITERION OF THE SINK & SOURCE TERM
 = 0.1000E+31(WHEN MIN. R.F.=1)  AT K=   0, I=   0, J=   0

 MAXIMUM STEPSIZE WHICH MEETS STABILITY CRITERION OF THE DISPERSION TERM
 = 0.7273E-02(WHEN MIN. R.F.=1)  AT K=   3, I=   2, J=  30
     1 CALLS TO GCG PACKAGE FOR TRANSPORT TIME STEP   8 IN FLOW TIME STEP  93 STRESS PERIOD   2
     9 TOTAL ITERATIONS
  MAXIMUM CONCENTRATION CHANGES FOR EACH ITERATION:
  MAX. CHANGE LAYER,ROW,COL MAX. CHANGE LAYER,ROW,COL MAX. CHANGE LAYER,ROW,COL MAX. CHANGE LAYER,ROW,COL MAX. CHANGE LAYER,ROW,COL
 ------------------------------------------------------------------------------------------------------------------------------------
   0.6007E-03 ( 14,  1, 59)  0.4582E-04 (  9,  1, 57)  0.1234E-04 (  5,  2, 62)  0.4611E-05 (  5,  2, 59)  0.1407E-05 (  6,  1, 62)
   0.7213E-06 (  7,  1, 59)  0.2377E-06 (  3,  3, 28)  0.1590E-06 (  7,  1, 59)  0.8533E-07 (  3,  2, 27)


                                          ================================================
                                                         FROM TIME =   94.000     TO    95.000    

 
 SOLVING FOR HEAD 
 FLOW MODEL IS TRANSIENT
 FLOW MODEL CONTAINS CONSTANT-HEAD CELLS


 MAXIMUM STEPSIZE DURING WHICH ANY PARTICLE CANNOT MOVE MORE THAN ONE CELL
 = 0.1698    (WHEN MIN. R.F.=1)  AT K=   3, I=   2, J=  30

 MAXIMUM STEPSIZE WHICH MEETS STABILITY CRITERION OF THE ADVECTION TERM
 (FOR PURE FINITE-DIFFERENCE OPTION, MIXELM=0) 
 = 0.1346    (WHEN MIN. R.F.=1)  AT K=   3, I=   2, J=  31


 TOTAL NUMBER OF POINT SOURCES/SINKS PRESENT IN THE FLOW MODEL =   240

 MAXIMUM STEPSIZE WHICH MEETS STABILITY CRITERION OF THE SINK & SOURCE TERM
 = 0.1000E+31(WHEN MIN. R.F.=1)  AT K=   0, I=   0, J=   0

 MAXIMUM STEPSIZE WHICH MEETS STABILITY CRITERION OF THE DISPERSION TERM
 = 0.7273E-02(WHEN MIN. R.F.=1)  AT K=   3, I=   2, J=  30


     1 CALLS TO GCG PACKAGE FOR TRANSPORT TIME STEP   1 IN FLOW TIME STEP  94 STRESS PERIOD   2
    10 TOTAL ITERATIONS

 NO OUTPUT CONTROL FOR STRESS PERIOD    2   TIME STEP  94
 
 SOLVING FOR HEAD 
 FLOW MODEL IS TRANSIENT
 FLOW MODEL CONTAINS CONSTANT-HEAD CELLS


 MAXIMUM STEPSIZE DURING WHICH ANY PARTICLE CANNOT MOVE MORE THAN ONE CELL
 = 0.1698    (WHEN MIN. R.F.=1)  AT K=   3, I=   2, J=  30

 MAXIMUM STEPSIZE WHICH MEETS STABILITY CRITERION OF THE ADVECTION TERM
 (FOR PURE FINITE-DIFFERENCE OPTION, MIXELM=0) 
 = 0.1346    (WHEN MIN. R.F.=1)  AT K=   3, I=   2, J=  31


 TOTAL NUMBER OF POINT SOURCES/SINKS PRESENT IN THE FLOW MODEL =   240

 MAXIMUM STEPSIZE WHICH MEETS STABILITY CRITERION OF THE SINK & SOURCE TERM
 = 0.1000E+31(WHEN MIN. R.F.=1)  AT K=   0, I=   0, J=   0

 MAXIMUM STEPSIZE WHICH MEETS STABILITY CRITERION OF THE DISPERSION TERM
 = 0.7273E-02(WHEN MIN. R.F.=1)  AT K=   3, I=   2, J=  30
     1 CALLS TO GCG PACKAGE FOR TRANSPORT TIME STEP   2 IN FLOW TIME STEP  94 STRESS PERIOD   2
    10 TOTAL ITERATIONS
 
 SOLVING FOR HEAD 
 FLOW MODEL IS TRANSIENT
 FLOW MODEL CONTAINS CONSTANT-HEAD CELLS


 MAXIMUM STEPSIZE DURING WHICH ANY PARTICLE CANNOT MOVE MORE THAN ONE CELL
 = 0.1698    (WHEN MIN. R.F.=1)  AT K=   3, I=   2, J=  30

 MAXIMUM STEPSIZE WHICH MEETS STABILITY CRITERION OF THE ADVECTION TERM
 (FOR PURE FINITE-DIFFERENCE OPTION, MIXELM=0) 
 = 0.1346    (WHEN MIN. R.F.=1)  AT K=   3, I=   2, J=  31


 TOTAL NUMBER OF POINT SOURCES/SINKS PRESENT IN THE FLOW MODEL =   240

 MAXIMUM STEPSIZE WHICH MEETS STABILITY CRITERION OF THE SINK & SOURCE TERM
 = 0.1000E+31(WHEN MIN. R.F.=1)  AT K=   0, I=   0, J=   0

 MAXIMUM STEPSIZE WHICH MEETS STABILITY CRITERION OF THE DISPERSION TERM
 = 0.7273E-02(WHEN MIN. R.F.=1)  AT K=   3, I=   2, J=  30
     1 CALLS TO GCG PACKAGE FOR TRANSPORT TIME STEP   3 IN FLOW TIME STEP  94 STRESS PERIOD   2
    10 TOTAL ITERATIONS
 
 SOLVING FOR HEAD 
 FLOW MODEL IS TRANSIENT
 FLOW MODEL CONTAINS CONSTANT-HEAD CELLS


 MAXIMUM STEPSIZE DURING WHICH ANY PARTICLE CANNOT MOVE MORE THAN ONE CELL
 = 0.1698    (WHEN MIN. R.F.=1)  AT K=   3, I=   2, J=  30

 MAXIMUM STEPSIZE WHICH MEETS STABILITY CRITERION OF THE ADVECTION TERM
 (FOR PURE FINITE-DIFFERENCE OPTION, MIXELM=0) 
 = 0.1346    (WHEN MIN. R.F.=1)  AT K=   3, I=   2, J=  31


 TOTAL NUMBER OF POINT SOURCES/SINKS PRESENT IN THE FLOW MODEL =   240

 MAXIMUM STEPSIZE WHICH MEETS STABILITY CRITERION OF THE SINK & SOURCE TERM
 = 0.1000E+31(WHEN MIN. R.F.=1)  AT K=   0, I=   0, J=   0

 MAXIMUM STEPSIZE WHICH MEETS STABILITY CRITERION OF THE DISPERSION TERM
 = 0.7273E-02(WHEN MIN. R.F.=1)  AT K=   3, I=   2, J=  30
     1 CALLS TO GCG PACKAGE FOR TRANSPORT TIME STEP   4 IN FLOW TIME STEP  94 STRESS PERIOD   2
    10 TOTAL ITERATIONS
 
 SOLVING FOR HEAD 
 FLOW MODEL IS TRANSIENT
 FLOW MODEL CONTAINS CONSTANT-HEAD CELLS


 MAXIMUM STEPSIZE DURING WHICH ANY PARTICLE CANNOT MOVE MORE THAN ONE CELL
 = 0.1698    (WHEN MIN. R.F.=1)  AT K=   3, I=   2, J=  30

 MAXIMUM STEPSIZE WHICH MEETS STABILITY CRITERION OF THE ADVECTION TERM
 (FOR PURE FINITE-DIFFERENCE OPTION, MIXELM=0) 
 = 0.1346    (WHEN MIN. R.F.=1)  AT K=   3, I=   2, J=  31


 TOTAL NUMBER OF POINT SOURCES/SINKS PRESENT IN THE FLOW MODEL =   240

 MAXIMUM STEPSIZE WHICH MEETS STABILITY CRITERION OF THE SINK & SOURCE TERM
 = 0.1000E+31(WHEN MIN. R.F.=1)  AT K=   0, I=   0, J=   0

 MAXIMUM STEPSIZE WHICH MEETS STABILITY CRITERION OF THE DISPERSION TERM
 = 0.7273E-02(WHEN MIN. R.F.=1)  AT K=   3, I=   2, J=  30
     1 CALLS TO GCG PACKAGE FOR TRANSPORT TIME STEP   5 IN FLOW TIME STEP  94 STRESS PERIOD   2
    10 TOTAL ITERATIONS
 
 SOLVING FOR HEAD 
 FLOW MODEL IS TRANSIENT
 FLOW MODEL CONTAINS CONSTANT-HEAD CELLS


 MAXIMUM STEPSIZE DURING WHICH ANY PARTICLE CANNOT MOVE MORE THAN ONE CELL
 = 0.1698    (WHEN MIN. R.F.=1)  AT K=   3, I=   2, J=  30

 MAXIMUM STEPSIZE WHICH MEETS STABILITY CRITERION OF THE ADVECTION TERM
 (FOR PURE FINITE-DIFFERENCE OPTION, MIXELM=0) 
 = 0.1346    (WHEN MIN. R.F.=1)  AT K=   3, I=   2, J=  31


 TOTAL NUMBER OF POINT SOURCES/SINKS PRESENT IN THE FLOW MODEL =   240

 MAXIMUM STEPSIZE WHICH MEETS STABILITY CRITERION OF THE SINK & SOURCE TERM
 = 0.1000E+31(WHEN MIN. R.F.=1)  AT K=   0, I=   0, J=   0

 MAXIMUM STEPSIZE WHICH MEETS STABILITY CRITERION OF THE DISPERSION TERM
 = 0.7273E-02(WHEN MIN. R.F.=1)  AT K=   3, I=   2, J=  30
     1 CALLS TO GCG PACKAGE FOR TRANSPORT TIME STEP   6 IN FLOW TIME STEP  94 STRESS PERIOD   2
    10 TOTAL ITERATIONS
 
 SOLVING FOR HEAD 
 FLOW MODEL IS TRANSIENT
 FLOW MODEL CONTAINS CONSTANT-HEAD CELLS


 MAXIMUM STEPSIZE DURING WHICH ANY PARTICLE CANNOT MOVE MORE THAN ONE CELL
 = 0.1698    (WHEN MIN. R.F.=1)  AT K=   3, I=   2, J=  30

 MAXIMUM STEPSIZE WHICH MEETS STABILITY CRITERION OF THE ADVECTION TERM
 (FOR PURE FINITE-DIFFERENCE OPTION, MIXELM=0) 
 = 0.1346    (WHEN MIN. R.F.=1)  AT K=   3, I=   2, J=  31


 TOTAL NUMBER OF POINT SOURCES/SINKS PRESENT IN THE FLOW MODEL =   240

 MAXIMUM STEPSIZE WHICH MEETS STABILITY CRITERION OF THE SINK & SOURCE TERM
 = 0.1000E+31(WHEN MIN. R.F.=1)  AT K=   0, I=   0, J=   0

 MAXIMUM STEPSIZE WHICH MEETS STABILITY CRITERION OF THE DISPERSION TERM
 = 0.7273E-02(WHEN MIN. R.F.=1)  AT K=   3, I=   2, J=  30
     1 CALLS TO GCG PACKAGE FOR TRANSPORT TIME STEP   7 IN FLOW TIME STEP  94 STRESS PERIOD   2
    10 TOTAL ITERATIONS
 
 SOLVING FOR HEAD 
 FLOW MODEL IS TRANSIENT
 FLOW MODEL CONTAINS CONSTANT-HEAD CELLS


 MAXIMUM STEPSIZE DURING WHICH ANY PARTICLE CANNOT MOVE MORE THAN ONE CELL
 = 0.1698    (WHEN MIN. R.F.=1)  AT K=   3, I=   2, J=  30

 MAXIMUM STEPSIZE WHICH MEETS STABILITY CRITERION OF THE ADVECTION TERM
 (FOR PURE FINITE-DIFFERENCE OPTION, MIXELM=0) 
 = 0.1346    (WHEN MIN. R.F.=1)  AT K=   3, I=   2, J=  31


 TOTAL NUMBER OF POINT SOURCES/SINKS PRESENT IN THE FLOW MODEL =   240

 MAXIMUM STEPSIZE WHICH MEETS STABILITY CRITERION OF THE SINK & SOURCE TERM
 = 0.1000E+31(WHEN MIN. R.F.=1)  AT K=   0, I=   0, J=   0

 MAXIMUM STEPSIZE WHICH MEETS STABILITY CRITERION OF THE DISPERSION TERM
 = 0.7273E-02(WHEN MIN. R.F.=1)  AT K=   3, I=   2, J=  30
     1 CALLS TO GCG PACKAGE FOR TRANSPORT TIME STEP   8 IN FLOW TIME STEP  94 STRESS PERIOD   2
     9 TOTAL ITERATIONS
  MAXIMUM CONCENTRATION CHANGES FOR EACH ITERATION:
  MAX. CHANGE LAYER,ROW,COL MAX. CHANGE LAYER,ROW,COL MAX. CHANGE LAYER,ROW,COL MAX. CHANGE LAYER,ROW,COL MAX. CHANGE LAYER,ROW,COL
 ------------------------------------------------------------------------------------------------------------------------------------
   0.6046E-03 ( 14,  1, 59)  0.4456E-04 (  9,  1, 57)  0.1205E-04 (  5,  2, 62)  0.4503E-05 (  5,  2, 59)  0.1366E-05 (  6,  1, 62)
   0.6723E-06 (  7,  1, 59)  0.2367E-06 (  3,  2, 30)  0.1593E-06 (  7,  1, 59)  0.8485E-07 (  4,  2, 59)


                                          ================================================
                                                         FROM TIME =   95.000     TO    96.000    

 
 SOLVING FOR HEAD 
 FLOW MODEL IS TRANSIENT
 FLOW MODEL CONTAINS CONSTANT-HEAD CELLS


 MAXIMUM STEPSIZE DURING WHICH ANY PARTICLE CANNOT MOVE MORE THAN ONE CELL
 = 0.1698    (WHEN MIN. R.F.=1)  AT K=   3, I=   2, J=  30

 MAXIMUM STEPSIZE WHICH MEETS STABILITY CRITERION OF THE ADVECTION TERM
 (FOR PURE FINITE-DIFFERENCE OPTION, MIXELM=0) 
 = 0.1346    (WHEN MIN. R.F.=1)  AT K=   3, I=   2, J=  31


 TOTAL NUMBER OF POINT SOURCES/SINKS PRESENT IN THE FLOW MODEL =   240

 MAXIMUM STEPSIZE WHICH MEETS STABILITY CRITERION OF THE SINK & SOURCE TERM
 = 0.1000E+31(WHEN MIN. R.F.=1)  AT K=   0, I=   0, J=   0

 MAXIMUM STEPSIZE WHICH MEETS STABILITY CRITERION OF THE DISPERSION TERM
 = 0.7273E-02(WHEN MIN. R.F.=1)  AT K=   3, I=   2, J=  30


     1 CALLS TO GCG PACKAGE FOR TRANSPORT TIME STEP   1 IN FLOW TIME STEP  95 STRESS PERIOD   2
    10 TOTAL ITERATIONS

 NO OUTPUT CONTROL FOR STRESS PERIOD    2   TIME STEP  95
 
 SOLVING FOR HEAD 
 FLOW MODEL IS TRANSIENT
 FLOW MODEL CONTAINS CONSTANT-HEAD CELLS


 MAXIMUM STEPSIZE DURING WHICH ANY PARTICLE CANNOT MOVE MORE THAN ONE CELL
 = 0.1698    (WHEN MIN. R.F.=1)  AT K=   3, I=   2, J=  30

 MAXIMUM STEPSIZE WHICH MEETS STABILITY CRITERION OF THE ADVECTION TERM
 (FOR PURE FINITE-DIFFERENCE OPTION, MIXELM=0) 
 = 0.1346    (WHEN MIN. R.F.=1)  AT K=   3, I=   2, J=  31


 TOTAL NUMBER OF POINT SOURCES/SINKS PRESENT IN THE FLOW MODEL =   240

 MAXIMUM STEPSIZE WHICH MEETS STABILITY CRITERION OF THE SINK & SOURCE TERM
 = 0.1000E+31(WHEN MIN. R.F.=1)  AT K=   0, I=   0, J=   0

 MAXIMUM STEPSIZE WHICH MEETS STABILITY CRITERION OF THE DISPERSION TERM
 = 0.7273E-02(WHEN MIN. R.F.=1)  AT K=   3, I=   2, J=  30
     1 CALLS TO GCG PACKAGE FOR TRANSPORT TIME STEP   2 IN FLOW TIME STEP  95 STRESS PERIOD   2
    10 TOTAL ITERATIONS
 
 SOLVING FOR HEAD 
 FLOW MODEL IS TRANSIENT
 FLOW MODEL CONTAINS CONSTANT-HEAD CELLS


 MAXIMUM STEPSIZE DURING WHICH ANY PARTICLE CANNOT MOVE MORE THAN ONE CELL
 = 0.1698    (WHEN MIN. R.F.=1)  AT K=   3, I=   2, J=  30

 MAXIMUM STEPSIZE WHICH MEETS STABILITY CRITERION OF THE ADVECTION TERM
 (FOR PURE FINITE-DIFFERENCE OPTION, MIXELM=0) 
 = 0.1346    (WHEN MIN. R.F.=1)  AT K=   3, I=   2, J=  31


 TOTAL NUMBER OF POINT SOURCES/SINKS PRESENT IN THE FLOW MODEL =   240

 MAXIMUM STEPSIZE WHICH MEETS STABILITY CRITERION OF THE SINK & SOURCE TERM
 = 0.1000E+31(WHEN MIN. R.F.=1)  AT K=   0, I=   0, J=   0

 MAXIMUM STEPSIZE WHICH MEETS STABILITY CRITERION OF THE DISPERSION TERM
 = 0.7273E-02(WHEN MIN. R.F.=1)  AT K=   3, I=   2, J=  30
     1 CALLS TO GCG PACKAGE FOR TRANSPORT TIME STEP   3 IN FLOW TIME STEP  95 STRESS PERIOD   2
    10 TOTAL ITERATIONS
 
 SOLVING FOR HEAD 
 FLOW MODEL IS TRANSIENT
 FLOW MODEL CONTAINS CONSTANT-HEAD CELLS


 MAXIMUM STEPSIZE DURING WHICH ANY PARTICLE CANNOT MOVE MORE THAN ONE CELL
 = 0.1698    (WHEN MIN. R.F.=1)  AT K=   3, I=   2, J=  30

 MAXIMUM STEPSIZE WHICH MEETS STABILITY CRITERION OF THE ADVECTION TERM
 (FOR PURE FINITE-DIFFERENCE OPTION, MIXELM=0) 
 = 0.1346    (WHEN MIN. R.F.=1)  AT K=   3, I=   2, J=  31


 TOTAL NUMBER OF POINT SOURCES/SINKS PRESENT IN THE FLOW MODEL =   240

 MAXIMUM STEPSIZE WHICH MEETS STABILITY CRITERION OF THE SINK & SOURCE TERM
 = 0.1000E+31(WHEN MIN. R.F.=1)  AT K=   0, I=   0, J=   0

 MAXIMUM STEPSIZE WHICH MEETS STABILITY CRITERION OF THE DISPERSION TERM
 = 0.7273E-02(WHEN MIN. R.F.=1)  AT K=   3, I=   2, J=  30
     1 CALLS TO GCG PACKAGE FOR TRANSPORT TIME STEP   4 IN FLOW TIME STEP  95 STRESS PERIOD   2
    10 TOTAL ITERATIONS
 
 SOLVING FOR HEAD 
 FLOW MODEL IS TRANSIENT
 FLOW MODEL CONTAINS CONSTANT-HEAD CELLS


 MAXIMUM STEPSIZE DURING WHICH ANY PARTICLE CANNOT MOVE MORE THAN ONE CELL
 = 0.1698    (WHEN MIN. R.F.=1)  AT K=   3, I=   2, J=  30

 MAXIMUM STEPSIZE WHICH MEETS STABILITY CRITERION OF THE ADVECTION TERM
 (FOR PURE FINITE-DIFFERENCE OPTION, MIXELM=0) 
 = 0.1346    (WHEN MIN. R.F.=1)  AT K=   3, I=   2, J=  31


 TOTAL NUMBER OF POINT SOURCES/SINKS PRESENT IN THE FLOW MODEL =   240

 MAXIMUM STEPSIZE WHICH MEETS STABILITY CRITERION OF THE SINK & SOURCE TERM
 = 0.1000E+31(WHEN MIN. R.F.=1)  AT K=   0, I=   0, J=   0

 MAXIMUM STEPSIZE WHICH MEETS STABILITY CRITERION OF THE DISPERSION TERM
 = 0.7273E-02(WHEN MIN. R.F.=1)  AT K=   3, I=   2, J=  30
     1 CALLS TO GCG PACKAGE FOR TRANSPORT TIME STEP   5 IN FLOW TIME STEP  95 STRESS PERIOD   2
    10 TOTAL ITERATIONS
 
 SOLVING FOR HEAD 
 FLOW MODEL IS TRANSIENT
 FLOW MODEL CONTAINS CONSTANT-HEAD CELLS


 MAXIMUM STEPSIZE DURING WHICH ANY PARTICLE CANNOT MOVE MORE THAN ONE CELL
 = 0.1698    (WHEN MIN. R.F.=1)  AT K=   3, I=   2, J=  30

 MAXIMUM STEPSIZE WHICH MEETS STABILITY CRITERION OF THE ADVECTION TERM
 (FOR PURE FINITE-DIFFERENCE OPTION, MIXELM=0) 
 = 0.1346    (WHEN MIN. R.F.=1)  AT K=   3, I=   2, J=  31


 TOTAL NUMBER OF POINT SOURCES/SINKS PRESENT IN THE FLOW MODEL =   240

 MAXIMUM STEPSIZE WHICH MEETS STABILITY CRITERION OF THE SINK & SOURCE TERM
 = 0.1000E+31(WHEN MIN. R.F.=1)  AT K=   0, I=   0, J=   0

 MAXIMUM STEPSIZE WHICH MEETS STABILITY CRITERION OF THE DISPERSION TERM
 = 0.7273E-02(WHEN MIN. R.F.=1)  AT K=   3, I=   2, J=  30
     1 CALLS TO GCG PACKAGE FOR TRANSPORT TIME STEP   6 IN FLOW TIME STEP  95 STRESS PERIOD   2
    10 TOTAL ITERATIONS
 
 SOLVING FOR HEAD 
 FLOW MODEL IS TRANSIENT
 FLOW MODEL CONTAINS CONSTANT-HEAD CELLS


 MAXIMUM STEPSIZE DURING WHICH ANY PARTICLE CANNOT MOVE MORE THAN ONE CELL
 = 0.1698    (WHEN MIN. R.F.=1)  AT K=   3, I=   2, J=  30

 MAXIMUM STEPSIZE WHICH MEETS STABILITY CRITERION OF THE ADVECTION TERM
 (FOR PURE FINITE-DIFFERENCE OPTION, MIXELM=0) 
 = 0.1346    (WHEN MIN. R.F.=1)  AT K=   3, I=   2, J=  31


 TOTAL NUMBER OF POINT SOURCES/SINKS PRESENT IN THE FLOW MODEL =   240

 MAXIMUM STEPSIZE WHICH MEETS STABILITY CRITERION OF THE SINK & SOURCE TERM
 = 0.1000E+31(WHEN MIN. R.F.=1)  AT K=   0, I=   0, J=   0

 MAXIMUM STEPSIZE WHICH MEETS STABILITY CRITERION OF THE DISPERSION TERM
 = 0.7273E-02(WHEN MIN. R.F.=1)  AT K=   3, I=   2, J=  30
     1 CALLS TO GCG PACKAGE FOR TRANSPORT TIME STEP   7 IN FLOW TIME STEP  95 STRESS PERIOD   2
    10 TOTAL ITERATIONS
 
 SOLVING FOR HEAD 
 FLOW MODEL IS TRANSIENT
 FLOW MODEL CONTAINS CONSTANT-HEAD CELLS


 MAXIMUM STEPSIZE DURING WHICH ANY PARTICLE CANNOT MOVE MORE THAN ONE CELL
 = 0.1698    (WHEN MIN. R.F.=1)  AT K=   3, I=   2, J=  30

 MAXIMUM STEPSIZE WHICH MEETS STABILITY CRITERION OF THE ADVECTION TERM
 (FOR PURE FINITE-DIFFERENCE OPTION, MIXELM=0) 
 = 0.1346    (WHEN MIN. R.F.=1)  AT K=   3, I=   2, J=  31


 TOTAL NUMBER OF POINT SOURCES/SINKS PRESENT IN THE FLOW MODEL =   240

 MAXIMUM STEPSIZE WHICH MEETS STABILITY CRITERION OF THE SINK & SOURCE TERM
 = 0.1000E+31(WHEN MIN. R.F.=1)  AT K=   0, I=   0, J=   0

 MAXIMUM STEPSIZE WHICH MEETS STABILITY CRITERION OF THE DISPERSION TERM
 = 0.7273E-02(WHEN MIN. R.F.=1)  AT K=   3, I=   2, J=  30
     1 CALLS TO GCG PACKAGE FOR TRANSPORT TIME STEP   8 IN FLOW TIME STEP  95 STRESS PERIOD   2
     9 TOTAL ITERATIONS
  MAXIMUM CONCENTRATION CHANGES FOR EACH ITERATION:
  MAX. CHANGE LAYER,ROW,COL MAX. CHANGE LAYER,ROW,COL MAX. CHANGE LAYER,ROW,COL MAX. CHANGE LAYER,ROW,COL MAX. CHANGE LAYER,ROW,COL
 ------------------------------------------------------------------------------------------------------------------------------------
   0.6081E-03 ( 14,  1, 59)  0.4334E-04 (  9,  1, 57)  0.1176E-04 (  5,  2, 62)  0.4397E-05 (  5,  2, 59)  0.1332E-05 (  6,  1, 62)
   0.6764E-06 (  7,  1, 59)  0.2219E-06 (  3,  3, 28)  0.1478E-06 (  7,  1, 59)  0.7983E-07 (  4,  2, 59)


                                          ================================================
                                                         FROM TIME =   96.000     TO    97.000    

 
 SOLVING FOR HEAD 
 FLOW MODEL IS TRANSIENT
 FLOW MODEL CONTAINS CONSTANT-HEAD CELLS


 MAXIMUM STEPSIZE DURING WHICH ANY PARTICLE CANNOT MOVE MORE THAN ONE CELL
 = 0.1698    (WHEN MIN. R.F.=1)  AT K=   3, I=   2, J=  30

 MAXIMUM STEPSIZE WHICH MEETS STABILITY CRITERION OF THE ADVECTION TERM
 (FOR PURE FINITE-DIFFERENCE OPTION, MIXELM=0) 
 = 0.1346    (WHEN MIN. R.F.=1)  AT K=   3, I=   2, J=  31


 TOTAL NUMBER OF POINT SOURCES/SINKS PRESENT IN THE FLOW MODEL =   240

 MAXIMUM STEPSIZE WHICH MEETS STABILITY CRITERION OF THE SINK & SOURCE TERM
 = 0.1000E+31(WHEN MIN. R.F.=1)  AT K=   0, I=   0, J=   0

 MAXIMUM STEPSIZE WHICH MEETS STABILITY CRITERION OF THE DISPERSION TERM
 = 0.7273E-02(WHEN MIN. R.F.=1)  AT K=   3, I=   2, J=  30


     1 CALLS TO GCG PACKAGE FOR TRANSPORT TIME STEP   1 IN FLOW TIME STEP  96 STRESS PERIOD   2
    10 TOTAL ITERATIONS

 NO OUTPUT CONTROL FOR STRESS PERIOD    2   TIME STEP  96
 
 SOLVING FOR HEAD 
 FLOW MODEL IS TRANSIENT
 FLOW MODEL CONTAINS CONSTANT-HEAD CELLS


 MAXIMUM STEPSIZE DURING WHICH ANY PARTICLE CANNOT MOVE MORE THAN ONE CELL
 = 0.1698    (WHEN MIN. R.F.=1)  AT K=   3, I=   2, J=  30

 MAXIMUM STEPSIZE WHICH MEETS STABILITY CRITERION OF THE ADVECTION TERM
 (FOR PURE FINITE-DIFFERENCE OPTION, MIXELM=0) 
 = 0.1346    (WHEN MIN. R.F.=1)  AT K=   3, I=   2, J=  31


 TOTAL NUMBER OF POINT SOURCES/SINKS PRESENT IN THE FLOW MODEL =   240

 MAXIMUM STEPSIZE WHICH MEETS STABILITY CRITERION OF THE SINK & SOURCE TERM
 = 0.1000E+31(WHEN MIN. R.F.=1)  AT K=   0, I=   0, J=   0

 MAXIMUM STEPSIZE WHICH MEETS STABILITY CRITERION OF THE DISPERSION TERM
 = 0.7273E-02(WHEN MIN. R.F.=1)  AT K=   3, I=   2, J=  30
     1 CALLS TO GCG PACKAGE FOR TRANSPORT TIME STEP   2 IN FLOW TIME STEP  96 STRESS PERIOD   2
    10 TOTAL ITERATIONS
 
 SOLVING FOR HEAD 
 FLOW MODEL IS TRANSIENT
 FLOW MODEL CONTAINS CONSTANT-HEAD CELLS


 MAXIMUM STEPSIZE DURING WHICH ANY PARTICLE CANNOT MOVE MORE THAN ONE CELL
 = 0.1698    (WHEN MIN. R.F.=1)  AT K=   3, I=   2, J=  30

 MAXIMUM STEPSIZE WHICH MEETS STABILITY CRITERION OF THE ADVECTION TERM
 (FOR PURE FINITE-DIFFERENCE OPTION, MIXELM=0) 
 = 0.1346    (WHEN MIN. R.F.=1)  AT K=   3, I=   2, J=  31


 TOTAL NUMBER OF POINT SOURCES/SINKS PRESENT IN THE FLOW MODEL =   240

 MAXIMUM STEPSIZE WHICH MEETS STABILITY CRITERION OF THE SINK & SOURCE TERM
 = 0.1000E+31(WHEN MIN. R.F.=1)  AT K=   0, I=   0, J=   0

 MAXIMUM STEPSIZE WHICH MEETS STABILITY CRITERION OF THE DISPERSION TERM
 = 0.7273E-02(WHEN MIN. R.F.=1)  AT K=   3, I=   2, J=  30
     1 CALLS TO GCG PACKAGE FOR TRANSPORT TIME STEP   3 IN FLOW TIME STEP  96 STRESS PERIOD   2
    10 TOTAL ITERATIONS
 
 SOLVING FOR HEAD 
 FLOW MODEL IS TRANSIENT
 FLOW MODEL CONTAINS CONSTANT-HEAD CELLS


 MAXIMUM STEPSIZE DURING WHICH ANY PARTICLE CANNOT MOVE MORE THAN ONE CELL
 = 0.1698    (WHEN MIN. R.F.=1)  AT K=   3, I=   2, J=  30

 MAXIMUM STEPSIZE WHICH MEETS STABILITY CRITERION OF THE ADVECTION TERM
 (FOR PURE FINITE-DIFFERENCE OPTION, MIXELM=0) 
 = 0.1346    (WHEN MIN. R.F.=1)  AT K=   3, I=   2, J=  31


 TOTAL NUMBER OF POINT SOURCES/SINKS PRESENT IN THE FLOW MODEL =   240

 MAXIMUM STEPSIZE WHICH MEETS STABILITY CRITERION OF THE SINK & SOURCE TERM
 = 0.1000E+31(WHEN MIN. R.F.=1)  AT K=   0, I=   0, J=   0

 MAXIMUM STEPSIZE WHICH MEETS STABILITY CRITERION OF THE DISPERSION TERM
 = 0.7273E-02(WHEN MIN. R.F.=1)  AT K=   3, I=   2, J=  30
     1 CALLS TO GCG PACKAGE FOR TRANSPORT TIME STEP   4 IN FLOW TIME STEP  96 STRESS PERIOD   2
    10 TOTAL ITERATIONS
 
 SOLVING FOR HEAD 
 FLOW MODEL IS TRANSIENT
 FLOW MODEL CONTAINS CONSTANT-HEAD CELLS


 MAXIMUM STEPSIZE DURING WHICH ANY PARTICLE CANNOT MOVE MORE THAN ONE CELL
 = 0.1698    (WHEN MIN. R.F.=1)  AT K=   3, I=   2, J=  30

 MAXIMUM STEPSIZE WHICH MEETS STABILITY CRITERION OF THE ADVECTION TERM
 (FOR PURE FINITE-DIFFERENCE OPTION, MIXELM=0) 
 = 0.1346    (WHEN MIN. R.F.=1)  AT K=   3, I=   2, J=  31


 TOTAL NUMBER OF POINT SOURCES/SINKS PRESENT IN THE FLOW MODEL =   240

 MAXIMUM STEPSIZE WHICH MEETS STABILITY CRITERION OF THE SINK & SOURCE TERM
 = 0.1000E+31(WHEN MIN. R.F.=1)  AT K=   0, I=   0, J=   0

 MAXIMUM STEPSIZE WHICH MEETS STABILITY CRITERION OF THE DISPERSION TERM
 = 0.7273E-02(WHEN MIN. R.F.=1)  AT K=   3, I=   2, J=  30
     1 CALLS TO GCG PACKAGE FOR TRANSPORT TIME STEP   5 IN FLOW TIME STEP  96 STRESS PERIOD   2
    10 TOTAL ITERATIONS
 
 SOLVING FOR HEAD 
 FLOW MODEL IS TRANSIENT
 FLOW MODEL CONTAINS CONSTANT-HEAD CELLS


 MAXIMUM STEPSIZE DURING WHICH ANY PARTICLE CANNOT MOVE MORE THAN ONE CELL
 = 0.1698    (WHEN MIN. R.F.=1)  AT K=   3, I=   2, J=  30

 MAXIMUM STEPSIZE WHICH MEETS STABILITY CRITERION OF THE ADVECTION TERM
 (FOR PURE FINITE-DIFFERENCE OPTION, MIXELM=0) 
 = 0.1346    (WHEN MIN. R.F.=1)  AT K=   3, I=   2, J=  31


 TOTAL NUMBER OF POINT SOURCES/SINKS PRESENT IN THE FLOW MODEL =   240

 MAXIMUM STEPSIZE WHICH MEETS STABILITY CRITERION OF THE SINK & SOURCE TERM
 = 0.1000E+31(WHEN MIN. R.F.=1)  AT K=   0, I=   0, J=   0

 MAXIMUM STEPSIZE WHICH MEETS STABILITY CRITERION OF THE DISPERSION TERM
 = 0.7273E-02(WHEN MIN. R.F.=1)  AT K=   3, I=   2, J=  30
     1 CALLS TO GCG PACKAGE FOR TRANSPORT TIME STEP   6 IN FLOW TIME STEP  96 STRESS PERIOD   2
    10 TOTAL ITERATIONS
 
 SOLVING FOR HEAD 
 FLOW MODEL IS TRANSIENT
 FLOW MODEL CONTAINS CONSTANT-HEAD CELLS


 MAXIMUM STEPSIZE DURING WHICH ANY PARTICLE CANNOT MOVE MORE THAN ONE CELL
 = 0.1698    (WHEN MIN. R.F.=1)  AT K=   3, I=   2, J=  30

 MAXIMUM STEPSIZE WHICH MEETS STABILITY CRITERION OF THE ADVECTION TERM
 (FOR PURE FINITE-DIFFERENCE OPTION, MIXELM=0) 
 = 0.1346    (WHEN MIN. R.F.=1)  AT K=   3, I=   2, J=  31


 TOTAL NUMBER OF POINT SOURCES/SINKS PRESENT IN THE FLOW MODEL =   240

 MAXIMUM STEPSIZE WHICH MEETS STABILITY CRITERION OF THE SINK & SOURCE TERM
 = 0.1000E+31(WHEN MIN. R.F.=1)  AT K=   0, I=   0, J=   0

 MAXIMUM STEPSIZE WHICH MEETS STABILITY CRITERION OF THE DISPERSION TERM
 = 0.7273E-02(WHEN MIN. R.F.=1)  AT K=   3, I=   2, J=  30
     1 CALLS TO GCG PACKAGE FOR TRANSPORT TIME STEP   7 IN FLOW TIME STEP  96 STRESS PERIOD   2
    10 TOTAL ITERATIONS
 
 SOLVING FOR HEAD 
 FLOW MODEL IS TRANSIENT
 FLOW MODEL CONTAINS CONSTANT-HEAD CELLS


 MAXIMUM STEPSIZE DURING WHICH ANY PARTICLE CANNOT MOVE MORE THAN ONE CELL
 = 0.1698    (WHEN MIN. R.F.=1)  AT K=   3, I=   2, J=  30

 MAXIMUM STEPSIZE WHICH MEETS STABILITY CRITERION OF THE ADVECTION TERM
 (FOR PURE FINITE-DIFFERENCE OPTION, MIXELM=0) 
 = 0.1346    (WHEN MIN. R.F.=1)  AT K=   3, I=   2, J=  31


 TOTAL NUMBER OF POINT SOURCES/SINKS PRESENT IN THE FLOW MODEL =   240

 MAXIMUM STEPSIZE WHICH MEETS STABILITY CRITERION OF THE SINK & SOURCE TERM
 = 0.1000E+31(WHEN MIN. R.F.=1)  AT K=   0, I=   0, J=   0

 MAXIMUM STEPSIZE WHICH MEETS STABILITY CRITERION OF THE DISPERSION TERM
 = 0.7273E-02(WHEN MIN. R.F.=1)  AT K=   3, I=   2, J=  30
     1 CALLS TO GCG PACKAGE FOR TRANSPORT TIME STEP   8 IN FLOW TIME STEP  96 STRESS PERIOD   2
     9 TOTAL ITERATIONS
  MAXIMUM CONCENTRATION CHANGES FOR EACH ITERATION:
  MAX. CHANGE LAYER,ROW,COL MAX. CHANGE LAYER,ROW,COL MAX. CHANGE LAYER,ROW,COL MAX. CHANGE LAYER,ROW,COL MAX. CHANGE LAYER,ROW,COL
 ------------------------------------------------------------------------------------------------------------------------------------
   0.6111E-03 ( 14,  1, 59)  0.4216E-04 (  9,  1, 57)  0.1149E-04 (  5,  2, 62)  0.4294E-05 (  5,  2, 59)  0.1293E-05 (  6,  1, 62)
   0.6291E-06 (  7,  1, 59)  0.2202E-06 (  3,  2, 30)  0.1488E-06 (  7,  1, 59)  0.7992E-07 (  4,  2, 59)


                                          ================================================
                                                         FROM TIME =   97.000     TO    98.000    

 
 SOLVING FOR HEAD 
 FLOW MODEL IS TRANSIENT
 FLOW MODEL CONTAINS CONSTANT-HEAD CELLS


 MAXIMUM STEPSIZE DURING WHICH ANY PARTICLE CANNOT MOVE MORE THAN ONE CELL
 = 0.1698    (WHEN MIN. R.F.=1)  AT K=   3, I=   2, J=  30

 MAXIMUM STEPSIZE WHICH MEETS STABILITY CRITERION OF THE ADVECTION TERM
 (FOR PURE FINITE-DIFFERENCE OPTION, MIXELM=0) 
 = 0.1346    (WHEN MIN. R.F.=1)  AT K=   3, I=   2, J=  31


 TOTAL NUMBER OF POINT SOURCES/SINKS PRESENT IN THE FLOW MODEL =   240

 MAXIMUM STEPSIZE WHICH MEETS STABILITY CRITERION OF THE SINK & SOURCE TERM
 = 0.1000E+31(WHEN MIN. R.F.=1)  AT K=   0, I=   0, J=   0

 MAXIMUM STEPSIZE WHICH MEETS STABILITY CRITERION OF THE DISPERSION TERM
 = 0.7273E-02(WHEN MIN. R.F.=1)  AT K=   3, I=   2, J=  30


     1 CALLS TO GCG PACKAGE FOR TRANSPORT TIME STEP   1 IN FLOW TIME STEP  97 STRESS PERIOD   2
    10 TOTAL ITERATIONS

 NO OUTPUT CONTROL FOR STRESS PERIOD    2   TIME STEP  97
 
 SOLVING FOR HEAD 
 FLOW MODEL IS TRANSIENT
 FLOW MODEL CONTAINS CONSTANT-HEAD CELLS


 MAXIMUM STEPSIZE DURING WHICH ANY PARTICLE CANNOT MOVE MORE THAN ONE CELL
 = 0.1698    (WHEN MIN. R.F.=1)  AT K=   3, I=   2, J=  30

 MAXIMUM STEPSIZE WHICH MEETS STABILITY CRITERION OF THE ADVECTION TERM
 (FOR PURE FINITE-DIFFERENCE OPTION, MIXELM=0) 
 = 0.1346    (WHEN MIN. R.F.=1)  AT K=   3, I=   2, J=  31


 TOTAL NUMBER OF POINT SOURCES/SINKS PRESENT IN THE FLOW MODEL =   240

 MAXIMUM STEPSIZE WHICH MEETS STABILITY CRITERION OF THE SINK & SOURCE TERM
 = 0.1000E+31(WHEN MIN. R.F.=1)  AT K=   0, I=   0, J=   0

 MAXIMUM STEPSIZE WHICH MEETS STABILITY CRITERION OF THE DISPERSION TERM
 = 0.7273E-02(WHEN MIN. R.F.=1)  AT K=   3, I=   2, J=  30
     1 CALLS TO GCG PACKAGE FOR TRANSPORT TIME STEP   2 IN FLOW TIME STEP  97 STRESS PERIOD   2
    10 TOTAL ITERATIONS
 
 SOLVING FOR HEAD 
 FLOW MODEL IS TRANSIENT
 FLOW MODEL CONTAINS CONSTANT-HEAD CELLS


 MAXIMUM STEPSIZE DURING WHICH ANY PARTICLE CANNOT MOVE MORE THAN ONE CELL
 = 0.1698    (WHEN MIN. R.F.=1)  AT K=   3, I=   2, J=  30

 MAXIMUM STEPSIZE WHICH MEETS STABILITY CRITERION OF THE ADVECTION TERM
 (FOR PURE FINITE-DIFFERENCE OPTION, MIXELM=0) 
 = 0.1346    (WHEN MIN. R.F.=1)  AT K=   3, I=   2, J=  31


 TOTAL NUMBER OF POINT SOURCES/SINKS PRESENT IN THE FLOW MODEL =   240

 MAXIMUM STEPSIZE WHICH MEETS STABILITY CRITERION OF THE SINK & SOURCE TERM
 = 0.1000E+31(WHEN MIN. R.F.=1)  AT K=   0, I=   0, J=   0

 MAXIMUM STEPSIZE WHICH MEETS STABILITY CRITERION OF THE DISPERSION TERM
 = 0.7273E-02(WHEN MIN. R.F.=1)  AT K=   3, I=   2, J=  30
     1 CALLS TO GCG PACKAGE FOR TRANSPORT TIME STEP   3 IN FLOW TIME STEP  97 STRESS PERIOD   2
    10 TOTAL ITERATIONS
 
 SOLVING FOR HEAD 
 FLOW MODEL IS TRANSIENT
 FLOW MODEL CONTAINS CONSTANT-HEAD CELLS


 MAXIMUM STEPSIZE DURING WHICH ANY PARTICLE CANNOT MOVE MORE THAN ONE CELL
 = 0.1698    (WHEN MIN. R.F.=1)  AT K=   3, I=   2, J=  30

 MAXIMUM STEPSIZE WHICH MEETS STABILITY CRITERION OF THE ADVECTION TERM
 (FOR PURE FINITE-DIFFERENCE OPTION, MIXELM=0) 
 = 0.1346    (WHEN MIN. R.F.=1)  AT K=   3, I=   2, J=  31


 TOTAL NUMBER OF POINT SOURCES/SINKS PRESENT IN THE FLOW MODEL =   240

 MAXIMUM STEPSIZE WHICH MEETS STABILITY CRITERION OF THE SINK & SOURCE TERM
 = 0.1000E+31(WHEN MIN. R.F.=1)  AT K=   0, I=   0, J=   0

 MAXIMUM STEPSIZE WHICH MEETS STABILITY CRITERION OF THE DISPERSION TERM
 = 0.7273E-02(WHEN MIN. R.F.=1)  AT K=   3, I=   2, J=  30
     1 CALLS TO GCG PACKAGE FOR TRANSPORT TIME STEP   4 IN FLOW TIME STEP  97 STRESS PERIOD   2
    10 TOTAL ITERATIONS
 
 SOLVING FOR HEAD 
 FLOW MODEL IS TRANSIENT
 FLOW MODEL CONTAINS CONSTANT-HEAD CELLS


 MAXIMUM STEPSIZE DURING WHICH ANY PARTICLE CANNOT MOVE MORE THAN ONE CELL
 = 0.1698    (WHEN MIN. R.F.=1)  AT K=   3, I=   2, J=  30

 MAXIMUM STEPSIZE WHICH MEETS STABILITY CRITERION OF THE ADVECTION TERM
 (FOR PURE FINITE-DIFFERENCE OPTION, MIXELM=0) 
 = 0.1346    (WHEN MIN. R.F.=1)  AT K=   3, I=   2, J=  31


 TOTAL NUMBER OF POINT SOURCES/SINKS PRESENT IN THE FLOW MODEL =   240

 MAXIMUM STEPSIZE WHICH MEETS STABILITY CRITERION OF THE SINK & SOURCE TERM
 = 0.1000E+31(WHEN MIN. R.F.=1)  AT K=   0, I=   0, J=   0

 MAXIMUM STEPSIZE WHICH MEETS STABILITY CRITERION OF THE DISPERSION TERM
 = 0.7273E-02(WHEN MIN. R.F.=1)  AT K=   3, I=   2, J=  30
     1 CALLS TO GCG PACKAGE FOR TRANSPORT TIME STEP   5 IN FLOW TIME STEP  97 STRESS PERIOD   2
    10 TOTAL ITERATIONS
 
 SOLVING FOR HEAD 
 FLOW MODEL IS TRANSIENT
 FLOW MODEL CONTAINS CONSTANT-HEAD CELLS


 MAXIMUM STEPSIZE DURING WHICH ANY PARTICLE CANNOT MOVE MORE THAN ONE CELL
 = 0.1698    (WHEN MIN. R.F.=1)  AT K=   3, I=   2, J=  30

 MAXIMUM STEPSIZE WHICH MEETS STABILITY CRITERION OF THE ADVECTION TERM
 (FOR PURE FINITE-DIFFERENCE OPTION, MIXELM=0) 
 = 0.1346    (WHEN MIN. R.F.=1)  AT K=   3, I=   2, J=  31


 TOTAL NUMBER OF POINT SOURCES/SINKS PRESENT IN THE FLOW MODEL =   240

 MAXIMUM STEPSIZE WHICH MEETS STABILITY CRITERION OF THE SINK & SOURCE TERM
 = 0.1000E+31(WHEN MIN. R.F.=1)  AT K=   0, I=   0, J=   0

 MAXIMUM STEPSIZE WHICH MEETS STABILITY CRITERION OF THE DISPERSION TERM
 = 0.7273E-02(WHEN MIN. R.F.=1)  AT K=   3, I=   2, J=  30
     1 CALLS TO GCG PACKAGE FOR TRANSPORT TIME STEP   6 IN FLOW TIME STEP  97 STRESS PERIOD   2
    10 TOTAL ITERATIONS
 
 SOLVING FOR HEAD 
 FLOW MODEL IS TRANSIENT
 FLOW MODEL CONTAINS CONSTANT-HEAD CELLS


 MAXIMUM STEPSIZE DURING WHICH ANY PARTICLE CANNOT MOVE MORE THAN ONE CELL
 = 0.1698    (WHEN MIN. R.F.=1)  AT K=   3, I=   2, J=  30

 MAXIMUM STEPSIZE WHICH MEETS STABILITY CRITERION OF THE ADVECTION TERM
 (FOR PURE FINITE-DIFFERENCE OPTION, MIXELM=0) 
 = 0.1346    (WHEN MIN. R.F.=1)  AT K=   3, I=   2, J=  31


 TOTAL NUMBER OF POINT SOURCES/SINKS PRESENT IN THE FLOW MODEL =   240

 MAXIMUM STEPSIZE WHICH MEETS STABILITY CRITERION OF THE SINK & SOURCE TERM
 = 0.1000E+31(WHEN MIN. R.F.=1)  AT K=   0, I=   0, J=   0

 MAXIMUM STEPSIZE WHICH MEETS STABILITY CRITERION OF THE DISPERSION TERM
 = 0.7273E-02(WHEN MIN. R.F.=1)  AT K=   3, I=   2, J=  30
     1 CALLS TO GCG PACKAGE FOR TRANSPORT TIME STEP   7 IN FLOW TIME STEP  97 STRESS PERIOD   2
    10 TOTAL ITERATIONS
 
 SOLVING FOR HEAD 
 FLOW MODEL IS TRANSIENT
 FLOW MODEL CONTAINS CONSTANT-HEAD CELLS


 MAXIMUM STEPSIZE DURING WHICH ANY PARTICLE CANNOT MOVE MORE THAN ONE CELL
 = 0.1698    (WHEN MIN. R.F.=1)  AT K=   3, I=   2, J=  30

 MAXIMUM STEPSIZE WHICH MEETS STABILITY CRITERION OF THE ADVECTION TERM
 (FOR PURE FINITE-DIFFERENCE OPTION, MIXELM=0) 
 = 0.1346    (WHEN MIN. R.F.=1)  AT K=   3, I=   2, J=  31


 TOTAL NUMBER OF POINT SOURCES/SINKS PRESENT IN THE FLOW MODEL =   240

 MAXIMUM STEPSIZE WHICH MEETS STABILITY CRITERION OF THE SINK & SOURCE TERM
 = 0.1000E+31(WHEN MIN. R.F.=1)  AT K=   0, I=   0, J=   0

 MAXIMUM STEPSIZE WHICH MEETS STABILITY CRITERION OF THE DISPERSION TERM
 = 0.7273E-02(WHEN MIN. R.F.=1)  AT K=   3, I=   2, J=  30
     1 CALLS TO GCG PACKAGE FOR TRANSPORT TIME STEP   8 IN FLOW TIME STEP  97 STRESS PERIOD   2
     9 TOTAL ITERATIONS
  MAXIMUM CONCENTRATION CHANGES FOR EACH ITERATION:
  MAX. CHANGE LAYER,ROW,COL MAX. CHANGE LAYER,ROW,COL MAX. CHANGE LAYER,ROW,COL MAX. CHANGE LAYER,ROW,COL MAX. CHANGE LAYER,ROW,COL
 ------------------------------------------------------------------------------------------------------------------------------------
   0.6135E-03 ( 14,  1, 59)  0.4101E-04 (  9,  1, 57)  0.1122E-04 (  5,  2, 62)  0.4195E-05 (  5,  2, 59)  0.1261E-05 (  6,  1, 62)
   0.6329E-06 (  7,  1, 59)  0.2089E-06 (  3,  3, 28)  0.1382E-06 (  7,  1, 59)  0.7526E-07 (  4,  2, 59)


                                          ================================================
                                                         FROM TIME =   98.000     TO    99.000    

 
 SOLVING FOR HEAD 
 FLOW MODEL IS TRANSIENT
 FLOW MODEL CONTAINS CONSTANT-HEAD CELLS


 MAXIMUM STEPSIZE DURING WHICH ANY PARTICLE CANNOT MOVE MORE THAN ONE CELL
 = 0.1698    (WHEN MIN. R.F.=1)  AT K=   3, I=   2, J=  30

 MAXIMUM STEPSIZE WHICH MEETS STABILITY CRITERION OF THE ADVECTION TERM
 (FOR PURE FINITE-DIFFERENCE OPTION, MIXELM=0) 
 = 0.1346    (WHEN MIN. R.F.=1)  AT K=   3, I=   2, J=  31


 TOTAL NUMBER OF POINT SOURCES/SINKS PRESENT IN THE FLOW MODEL =   240

 MAXIMUM STEPSIZE WHICH MEETS STABILITY CRITERION OF THE SINK & SOURCE TERM
 = 0.1000E+31(WHEN MIN. R.F.=1)  AT K=   0, I=   0, J=   0

 MAXIMUM STEPSIZE WHICH MEETS STABILITY CRITERION OF THE DISPERSION TERM
 = 0.7273E-02(WHEN MIN. R.F.=1)  AT K=   3, I=   2, J=  30


     1 CALLS TO GCG PACKAGE FOR TRANSPORT TIME STEP   1 IN FLOW TIME STEP  98 STRESS PERIOD   2
    10 TOTAL ITERATIONS

 NO OUTPUT CONTROL FOR STRESS PERIOD    2   TIME STEP  98
 
 SOLVING FOR HEAD 
 FLOW MODEL IS TRANSIENT
 FLOW MODEL CONTAINS CONSTANT-HEAD CELLS


 MAXIMUM STEPSIZE DURING WHICH ANY PARTICLE CANNOT MOVE MORE THAN ONE CELL
 = 0.1698    (WHEN MIN. R.F.=1)  AT K=   3, I=   2, J=  30

 MAXIMUM STEPSIZE WHICH MEETS STABILITY CRITERION OF THE ADVECTION TERM
 (FOR PURE FINITE-DIFFERENCE OPTION, MIXELM=0) 
 = 0.1346    (WHEN MIN. R.F.=1)  AT K=   3, I=   2, J=  31


 TOTAL NUMBER OF POINT SOURCES/SINKS PRESENT IN THE FLOW MODEL =   240

 MAXIMUM STEPSIZE WHICH MEETS STABILITY CRITERION OF THE SINK & SOURCE TERM
 = 0.1000E+31(WHEN MIN. R.F.=1)  AT K=   0, I=   0, J=   0

 MAXIMUM STEPSIZE WHICH MEETS STABILITY CRITERION OF THE DISPERSION TERM
 = 0.7273E-02(WHEN MIN. R.F.=1)  AT K=   3, I=   2, J=  30
     1 CALLS TO GCG PACKAGE FOR TRANSPORT TIME STEP   2 IN FLOW TIME STEP  98 STRESS PERIOD   2
    10 TOTAL ITERATIONS
 
 SOLVING FOR HEAD 
 FLOW MODEL IS TRANSIENT
 FLOW MODEL CONTAINS CONSTANT-HEAD CELLS


 MAXIMUM STEPSIZE DURING WHICH ANY PARTICLE CANNOT MOVE MORE THAN ONE CELL
 = 0.1698    (WHEN MIN. R.F.=1)  AT K=   3, I=   2, J=  30

 MAXIMUM STEPSIZE WHICH MEETS STABILITY CRITERION OF THE ADVECTION TERM
 (FOR PURE FINITE-DIFFERENCE OPTION, MIXELM=0) 
 = 0.1346    (WHEN MIN. R.F.=1)  AT K=   3, I=   2, J=  31


 TOTAL NUMBER OF POINT SOURCES/SINKS PRESENT IN THE FLOW MODEL =   240

 MAXIMUM STEPSIZE WHICH MEETS STABILITY CRITERION OF THE SINK & SOURCE TERM
 = 0.1000E+31(WHEN MIN. R.F.=1)  AT K=   0, I=   0, J=   0

 MAXIMUM STEPSIZE WHICH MEETS STABILITY CRITERION OF THE DISPERSION TERM
 = 0.7273E-02(WHEN MIN. R.F.=1)  AT K=   3, I=   2, J=  30
     1 CALLS TO GCG PACKAGE FOR TRANSPORT TIME STEP   3 IN FLOW TIME STEP  98 STRESS PERIOD   2
    10 TOTAL ITERATIONS
 
 SOLVING FOR HEAD 
 FLOW MODEL IS TRANSIENT
 FLOW MODEL CONTAINS CONSTANT-HEAD CELLS


 MAXIMUM STEPSIZE DURING WHICH ANY PARTICLE CANNOT MOVE MORE THAN ONE CELL
 = 0.1698    (WHEN MIN. R.F.=1)  AT K=   3, I=   2, J=  30

 MAXIMUM STEPSIZE WHICH MEETS STABILITY CRITERION OF THE ADVECTION TERM
 (FOR PURE FINITE-DIFFERENCE OPTION, MIXELM=0) 
 = 0.1346    (WHEN MIN. R.F.=1)  AT K=   3, I=   2, J=  31


 TOTAL NUMBER OF POINT SOURCES/SINKS PRESENT IN THE FLOW MODEL =   240

 MAXIMUM STEPSIZE WHICH MEETS STABILITY CRITERION OF THE SINK & SOURCE TERM
 = 0.1000E+31(WHEN MIN. R.F.=1)  AT K=   0, I=   0, J=   0

 MAXIMUM STEPSIZE WHICH MEETS STABILITY CRITERION OF THE DISPERSION TERM
 = 0.7273E-02(WHEN MIN. R.F.=1)  AT K=   3, I=   2, J=  30
     1 CALLS TO GCG PACKAGE FOR TRANSPORT TIME STEP   4 IN FLOW TIME STEP  98 STRESS PERIOD   2
    10 TOTAL ITERATIONS
 
 SOLVING FOR HEAD 
 FLOW MODEL IS TRANSIENT
 FLOW MODEL CONTAINS CONSTANT-HEAD CELLS


 MAXIMUM STEPSIZE DURING WHICH ANY PARTICLE CANNOT MOVE MORE THAN ONE CELL
 = 0.1698    (WHEN MIN. R.F.=1)  AT K=   3, I=   2, J=  30

 MAXIMUM STEPSIZE WHICH MEETS STABILITY CRITERION OF THE ADVECTION TERM
 (FOR PURE FINITE-DIFFERENCE OPTION, MIXELM=0) 
 = 0.1346    (WHEN MIN. R.F.=1)  AT K=   3, I=   2, J=  31


 TOTAL NUMBER OF POINT SOURCES/SINKS PRESENT IN THE FLOW MODEL =   240

 MAXIMUM STEPSIZE WHICH MEETS STABILITY CRITERION OF THE SINK & SOURCE TERM
 = 0.1000E+31(WHEN MIN. R.F.=1)  AT K=   0, I=   0, J=   0

 MAXIMUM STEPSIZE WHICH MEETS STABILITY CRITERION OF THE DISPERSION TERM
 = 0.7273E-02(WHEN MIN. R.F.=1)  AT K=   3, I=   2, J=  30
     1 CALLS TO GCG PACKAGE FOR TRANSPORT TIME STEP   5 IN FLOW TIME STEP  98 STRESS PERIOD   2
    10 TOTAL ITERATIONS
 
 SOLVING FOR HEAD 
 FLOW MODEL IS TRANSIENT
 FLOW MODEL CONTAINS CONSTANT-HEAD CELLS


 MAXIMUM STEPSIZE DURING WHICH ANY PARTICLE CANNOT MOVE MORE THAN ONE CELL
 = 0.1698    (WHEN MIN. R.F.=1)  AT K=   3, I=   2, J=  30

 MAXIMUM STEPSIZE WHICH MEETS STABILITY CRITERION OF THE ADVECTION TERM
 (FOR PURE FINITE-DIFFERENCE OPTION, MIXELM=0) 
 = 0.1346    (WHEN MIN. R.F.=1)  AT K=   3, I=   2, J=  31


 TOTAL NUMBER OF POINT SOURCES/SINKS PRESENT IN THE FLOW MODEL =   240

 MAXIMUM STEPSIZE WHICH MEETS STABILITY CRITERION OF THE SINK & SOURCE TERM
 = 0.1000E+31(WHEN MIN. R.F.=1)  AT K=   0, I=   0, J=   0

 MAXIMUM STEPSIZE WHICH MEETS STABILITY CRITERION OF THE DISPERSION TERM
 = 0.7273E-02(WHEN MIN. R.F.=1)  AT K=   3, I=   2, J=  30
     1 CALLS TO GCG PACKAGE FOR TRANSPORT TIME STEP   6 IN FLOW TIME STEP  98 STRESS PERIOD   2
    10 TOTAL ITERATIONS
 
 SOLVING FOR HEAD 
 FLOW MODEL IS TRANSIENT
 FLOW MODEL CONTAINS CONSTANT-HEAD CELLS


 MAXIMUM STEPSIZE DURING WHICH ANY PARTICLE CANNOT MOVE MORE THAN ONE CELL
 = 0.1698    (WHEN MIN. R.F.=1)  AT K=   3, I=   2, J=  30

 MAXIMUM STEPSIZE WHICH MEETS STABILITY CRITERION OF THE ADVECTION TERM
 (FOR PURE FINITE-DIFFERENCE OPTION, MIXELM=0) 
 = 0.1346    (WHEN MIN. R.F.=1)  AT K=   3, I=   2, J=  31


 TOTAL NUMBER OF POINT SOURCES/SINKS PRESENT IN THE FLOW MODEL =   240

 MAXIMUM STEPSIZE WHICH MEETS STABILITY CRITERION OF THE SINK & SOURCE TERM
 = 0.1000E+31(WHEN MIN. R.F.=1)  AT K=   0, I=   0, J=   0

 MAXIMUM STEPSIZE WHICH MEETS STABILITY CRITERION OF THE DISPERSION TERM
 = 0.7273E-02(WHEN MIN. R.F.=1)  AT K=   3, I=   2, J=  30
     1 CALLS TO GCG PACKAGE FOR TRANSPORT TIME STEP   7 IN FLOW TIME STEP  98 STRESS PERIOD   2
    10 TOTAL ITERATIONS
 
 SOLVING FOR HEAD 
 FLOW MODEL IS TRANSIENT
 FLOW MODEL CONTAINS CONSTANT-HEAD CELLS


 MAXIMUM STEPSIZE DURING WHICH ANY PARTICLE CANNOT MOVE MORE THAN ONE CELL
 = 0.1698    (WHEN MIN. R.F.=1)  AT K=   3, I=   2, J=  30

 MAXIMUM STEPSIZE WHICH MEETS STABILITY CRITERION OF THE ADVECTION TERM
 (FOR PURE FINITE-DIFFERENCE OPTION, MIXELM=0) 
 = 0.1346    (WHEN MIN. R.F.=1)  AT K=   3, I=   2, J=  31


 TOTAL NUMBER OF POINT SOURCES/SINKS PRESENT IN THE FLOW MODEL =   240

 MAXIMUM STEPSIZE WHICH MEETS STABILITY CRITERION OF THE SINK & SOURCE TERM
 = 0.1000E+31(WHEN MIN. R.F.=1)  AT K=   0, I=   0, J=   0

 MAXIMUM STEPSIZE WHICH MEETS STABILITY CRITERION OF THE DISPERSION TERM
 = 0.7273E-02(WHEN MIN. R.F.=1)  AT K=   3, I=   2, J=  30
     1 CALLS TO GCG PACKAGE FOR TRANSPORT TIME STEP   8 IN FLOW TIME STEP  98 STRESS PERIOD   2
     9 TOTAL ITERATIONS
  MAXIMUM CONCENTRATION CHANGES FOR EACH ITERATION:
  MAX. CHANGE LAYER,ROW,COL MAX. CHANGE LAYER,ROW,COL MAX. CHANGE LAYER,ROW,COL MAX. CHANGE LAYER,ROW,COL MAX. CHANGE LAYER,ROW,COL
 ------------------------------------------------------------------------------------------------------------------------------------
   0.6155E-03 ( 14,  1, 59)  0.3989E-04 (  9,  1, 57)  0.1096E-04 (  5,  2, 62)  0.4097E-05 (  5,  2, 59)  0.1225E-05 (  6,  1, 62)
   0.5883E-06 (  7,  1, 59)  0.2063E-06 (  3,  2, 30)  0.1394E-06 (  7,  1, 59)  0.7541E-07 (  4,  2, 59)


                                          ================================================
                                                         FROM TIME =   99.000     TO   100.000    

 
 SOLVING FOR HEAD 
 FLOW MODEL IS TRANSIENT
 FLOW MODEL CONTAINS CONSTANT-HEAD CELLS


 MAXIMUM STEPSIZE DURING WHICH ANY PARTICLE CANNOT MOVE MORE THAN ONE CELL
 = 0.1698    (WHEN MIN. R.F.=1)  AT K=   3, I=   2, J=  30

 MAXIMUM STEPSIZE WHICH MEETS STABILITY CRITERION OF THE ADVECTION TERM
 (FOR PURE FINITE-DIFFERENCE OPTION, MIXELM=0) 
 = 0.1346    (WHEN MIN. R.F.=1)  AT K=   3, I=   2, J=  31


 TOTAL NUMBER OF POINT SOURCES/SINKS PRESENT IN THE FLOW MODEL =   240

 MAXIMUM STEPSIZE WHICH MEETS STABILITY CRITERION OF THE SINK & SOURCE TERM
 = 0.1000E+31(WHEN MIN. R.F.=1)  AT K=   0, I=   0, J=   0

 MAXIMUM STEPSIZE WHICH MEETS STABILITY CRITERION OF THE DISPERSION TERM
 = 0.7273E-02(WHEN MIN. R.F.=1)  AT K=   3, I=   2, J=  30


     1 CALLS TO GCG PACKAGE FOR TRANSPORT TIME STEP   1 IN FLOW TIME STEP  99 STRESS PERIOD   2
    10 TOTAL ITERATIONS

 NO OUTPUT CONTROL FOR STRESS PERIOD    2   TIME STEP  99
 
 SOLVING FOR HEAD 
 FLOW MODEL IS TRANSIENT
 FLOW MODEL CONTAINS CONSTANT-HEAD CELLS


 MAXIMUM STEPSIZE DURING WHICH ANY PARTICLE CANNOT MOVE MORE THAN ONE CELL
 = 0.1698    (WHEN MIN. R.F.=1)  AT K=   3, I=   2, J=  30

 MAXIMUM STEPSIZE WHICH MEETS STABILITY CRITERION OF THE ADVECTION TERM
 (FOR PURE FINITE-DIFFERENCE OPTION, MIXELM=0) 
 = 0.1346    (WHEN MIN. R.F.=1)  AT K=   3, I=   2, J=  31


 TOTAL NUMBER OF POINT SOURCES/SINKS PRESENT IN THE FLOW MODEL =   240

 MAXIMUM STEPSIZE WHICH MEETS STABILITY CRITERION OF THE SINK & SOURCE TERM
 = 0.1000E+31(WHEN MIN. R.F.=1)  AT K=   0, I=   0, J=   0

 MAXIMUM STEPSIZE WHICH MEETS STABILITY CRITERION OF THE DISPERSION TERM
 = 0.7273E-02(WHEN MIN. R.F.=1)  AT K=   3, I=   2, J=  30
     1 CALLS TO GCG PACKAGE FOR TRANSPORT TIME STEP   2 IN FLOW TIME STEP  99 STRESS PERIOD   2
    10 TOTAL ITERATIONS
 
 SOLVING FOR HEAD 
 FLOW MODEL IS TRANSIENT
 FLOW MODEL CONTAINS CONSTANT-HEAD CELLS


 MAXIMUM STEPSIZE DURING WHICH ANY PARTICLE CANNOT MOVE MORE THAN ONE CELL
 = 0.1698    (WHEN MIN. R.F.=1)  AT K=   3, I=   2, J=  30

 MAXIMUM STEPSIZE WHICH MEETS STABILITY CRITERION OF THE ADVECTION TERM
 (FOR PURE FINITE-DIFFERENCE OPTION, MIXELM=0) 
 = 0.1346    (WHEN MIN. R.F.=1)  AT K=   3, I=   2, J=  31


 TOTAL NUMBER OF POINT SOURCES/SINKS PRESENT IN THE FLOW MODEL =   240

 MAXIMUM STEPSIZE WHICH MEETS STABILITY CRITERION OF THE SINK & SOURCE TERM
 = 0.1000E+31(WHEN MIN. R.F.=1)  AT K=   0, I=   0, J=   0

 MAXIMUM STEPSIZE WHICH MEETS STABILITY CRITERION OF THE DISPERSION TERM
 = 0.7273E-02(WHEN MIN. R.F.=1)  AT K=   3, I=   2, J=  30
     1 CALLS TO GCG PACKAGE FOR TRANSPORT TIME STEP   3 IN FLOW TIME STEP  99 STRESS PERIOD   2
    10 TOTAL ITERATIONS
 
 SOLVING FOR HEAD 
 FLOW MODEL IS TRANSIENT
 FLOW MODEL CONTAINS CONSTANT-HEAD CELLS


 MAXIMUM STEPSIZE DURING WHICH ANY PARTICLE CANNOT MOVE MORE THAN ONE CELL
 = 0.1698    (WHEN MIN. R.F.=1)  AT K=   3, I=   2, J=  30

 MAXIMUM STEPSIZE WHICH MEETS STABILITY CRITERION OF THE ADVECTION TERM
 (FOR PURE FINITE-DIFFERENCE OPTION, MIXELM=0) 
 = 0.1346    (WHEN MIN. R.F.=1)  AT K=   3, I=   2, J=  31


 TOTAL NUMBER OF POINT SOURCES/SINKS PRESENT IN THE FLOW MODEL =   240

 MAXIMUM STEPSIZE WHICH MEETS STABILITY CRITERION OF THE SINK & SOURCE TERM
 = 0.1000E+31(WHEN MIN. R.F.=1)  AT K=   0, I=   0, J=   0

 MAXIMUM STEPSIZE WHICH MEETS STABILITY CRITERION OF THE DISPERSION TERM
 = 0.7273E-02(WHEN MIN. R.F.=1)  AT K=   3, I=   2, J=  30
     1 CALLS TO GCG PACKAGE FOR TRANSPORT TIME STEP   4 IN FLOW TIME STEP  99 STRESS PERIOD   2
    10 TOTAL ITERATIONS
 
 SOLVING FOR HEAD 
 FLOW MODEL IS TRANSIENT
 FLOW MODEL CONTAINS CONSTANT-HEAD CELLS


 MAXIMUM STEPSIZE DURING WHICH ANY PARTICLE CANNOT MOVE MORE THAN ONE CELL
 = 0.1698    (WHEN MIN. R.F.=1)  AT K=   3, I=   2, J=  30

 MAXIMUM STEPSIZE WHICH MEETS STABILITY CRITERION OF THE ADVECTION TERM
 (FOR PURE FINITE-DIFFERENCE OPTION, MIXELM=0) 
 = 0.1346    (WHEN MIN. R.F.=1)  AT K=   3, I=   2, J=  31


 TOTAL NUMBER OF POINT SOURCES/SINKS PRESENT IN THE FLOW MODEL =   240

 MAXIMUM STEPSIZE WHICH MEETS STABILITY CRITERION OF THE SINK & SOURCE TERM
 = 0.1000E+31(WHEN MIN. R.F.=1)  AT K=   0, I=   0, J=   0

 MAXIMUM STEPSIZE WHICH MEETS STABILITY CRITERION OF THE DISPERSION TERM
 = 0.7273E-02(WHEN MIN. R.F.=1)  AT K=   3, I=   2, J=  30
     1 CALLS TO GCG PACKAGE FOR TRANSPORT TIME STEP   5 IN FLOW TIME STEP  99 STRESS PERIOD   2
    10 TOTAL ITERATIONS
 
 SOLVING FOR HEAD 
 FLOW MODEL IS TRANSIENT
 FLOW MODEL CONTAINS CONSTANT-HEAD CELLS


 MAXIMUM STEPSIZE DURING WHICH ANY PARTICLE CANNOT MOVE MORE THAN ONE CELL
 = 0.1698    (WHEN MIN. R.F.=1)  AT K=   3, I=   2, J=  30

 MAXIMUM STEPSIZE WHICH MEETS STABILITY CRITERION OF THE ADVECTION TERM
 (FOR PURE FINITE-DIFFERENCE OPTION, MIXELM=0) 
 = 0.1346    (WHEN MIN. R.F.=1)  AT K=   3, I=   2, J=  31


 TOTAL NUMBER OF POINT SOURCES/SINKS PRESENT IN THE FLOW MODEL =   240

 MAXIMUM STEPSIZE WHICH MEETS STABILITY CRITERION OF THE SINK & SOURCE TERM
 = 0.1000E+31(WHEN MIN. R.F.=1)  AT K=   0, I=   0, J=   0

 MAXIMUM STEPSIZE WHICH MEETS STABILITY CRITERION OF THE DISPERSION TERM
 = 0.7273E-02(WHEN MIN. R.F.=1)  AT K=   3, I=   2, J=  30
     1 CALLS TO GCG PACKAGE FOR TRANSPORT TIME STEP   6 IN FLOW TIME STEP  99 STRESS PERIOD   2
    10 TOTAL ITERATIONS
 
 SOLVING FOR HEAD 
 FLOW MODEL IS TRANSIENT
 FLOW MODEL CONTAINS CONSTANT-HEAD CELLS


 MAXIMUM STEPSIZE DURING WHICH ANY PARTICLE CANNOT MOVE MORE THAN ONE CELL
 = 0.1698    (WHEN MIN. R.F.=1)  AT K=   3, I=   2, J=  30

 MAXIMUM STEPSIZE WHICH MEETS STABILITY CRITERION OF THE ADVECTION TERM
 (FOR PURE FINITE-DIFFERENCE OPTION, MIXELM=0) 
 = 0.1346    (WHEN MIN. R.F.=1)  AT K=   3, I=   2, J=  31


 TOTAL NUMBER OF POINT SOURCES/SINKS PRESENT IN THE FLOW MODEL =   240

 MAXIMUM STEPSIZE WHICH MEETS STABILITY CRITERION OF THE SINK & SOURCE TERM
 = 0.1000E+31(WHEN MIN. R.F.=1)  AT K=   0, I=   0, J=   0

 MAXIMUM STEPSIZE WHICH MEETS STABILITY CRITERION OF THE DISPERSION TERM
 = 0.7273E-02(WHEN MIN. R.F.=1)  AT K=   3, I=   2, J=  30
     1 CALLS TO GCG PACKAGE FOR TRANSPORT TIME STEP   7 IN FLOW TIME STEP  99 STRESS PERIOD   2
    10 TOTAL ITERATIONS
 
 SOLVING FOR HEAD 
 FLOW MODEL IS TRANSIENT
 FLOW MODEL CONTAINS CONSTANT-HEAD CELLS


 MAXIMUM STEPSIZE DURING WHICH ANY PARTICLE CANNOT MOVE MORE THAN ONE CELL
 = 0.1698    (WHEN MIN. R.F.=1)  AT K=   3, I=   2, J=  30

 MAXIMUM STEPSIZE WHICH MEETS STABILITY CRITERION OF THE ADVECTION TERM
 (FOR PURE FINITE-DIFFERENCE OPTION, MIXELM=0) 
 = 0.1346    (WHEN MIN. R.F.=1)  AT K=   3, I=   2, J=  31


 TOTAL NUMBER OF POINT SOURCES/SINKS PRESENT IN THE FLOW MODEL =   240

 MAXIMUM STEPSIZE WHICH MEETS STABILITY CRITERION OF THE SINK & SOURCE TERM
 = 0.1000E+31(WHEN MIN. R.F.=1)  AT K=   0, I=   0, J=   0

 MAXIMUM STEPSIZE WHICH MEETS STABILITY CRITERION OF THE DISPERSION TERM
 = 0.7273E-02(WHEN MIN. R.F.=1)  AT K=   3, I=   2, J=  30
     1 CALLS TO GCG PACKAGE FOR TRANSPORT TIME STEP   8 IN FLOW TIME STEP  99 STRESS PERIOD   2
     9 TOTAL ITERATIONS
  MAXIMUM CONCENTRATION CHANGES FOR EACH ITERATION:
  MAX. CHANGE LAYER,ROW,COL MAX. CHANGE LAYER,ROW,COL MAX. CHANGE LAYER,ROW,COL MAX. CHANGE LAYER,ROW,COL MAX. CHANGE LAYER,ROW,COL
 ------------------------------------------------------------------------------------------------------------------------------------
   0.6170E-03 ( 14,  1, 59)  0.3881E-04 (  9,  1, 57)  0.1071E-04 (  5,  2, 62)  0.4003E-05 (  5,  2, 59)  0.1195E-05 (  6,  1, 62)
   0.5916E-06 (  7,  1, 59)  0.1978E-06 (  3,  3, 28)  0.1297E-06 (  7,  1, 59)  0.7149E-07 (  3,  2, 27)


                                          ================================================
                                                         FROM TIME =  100.000     TO    101.00    

 
 SOLVING FOR HEAD 
 FLOW MODEL IS TRANSIENT
 FLOW MODEL CONTAINS CONSTANT-HEAD CELLS


 MAXIMUM STEPSIZE DURING WHICH ANY PARTICLE CANNOT MOVE MORE THAN ONE CELL
 = 0.1698    (WHEN MIN. R.F.=1)  AT K=   3, I=   2, J=  30

 MAXIMUM STEPSIZE WHICH MEETS STABILITY CRITERION OF THE ADVECTION TERM
 (FOR PURE FINITE-DIFFERENCE OPTION, MIXELM=0) 
 = 0.1346    (WHEN MIN. R.F.=1)  AT K=   3, I=   2, J=  31


 TOTAL NUMBER OF POINT SOURCES/SINKS PRESENT IN THE FLOW MODEL =   240

 MAXIMUM STEPSIZE WHICH MEETS STABILITY CRITERION OF THE SINK & SOURCE TERM
 = 0.1000E+31(WHEN MIN. R.F.=1)  AT K=   0, I=   0, J=   0

 MAXIMUM STEPSIZE WHICH MEETS STABILITY CRITERION OF THE DISPERSION TERM
 = 0.7273E-02(WHEN MIN. R.F.=1)  AT K=   3, I=   2, J=  30


     1 CALLS TO GCG PACKAGE FOR TRANSPORT TIME STEP   1 IN FLOW TIME STEP 100 STRESS PERIOD   2
    10 TOTAL ITERATIONS

 NO OUTPUT CONTROL FOR STRESS PERIOD    2   TIME STEP 100
 
 SOLVING FOR HEAD 
 FLOW MODEL IS TRANSIENT
 FLOW MODEL CONTAINS CONSTANT-HEAD CELLS


 MAXIMUM STEPSIZE DURING WHICH ANY PARTICLE CANNOT MOVE MORE THAN ONE CELL
 = 0.1698    (WHEN MIN. R.F.=1)  AT K=   3, I=   2, J=  30

 MAXIMUM STEPSIZE WHICH MEETS STABILITY CRITERION OF THE ADVECTION TERM
 (FOR PURE FINITE-DIFFERENCE OPTION, MIXELM=0) 
 = 0.1346    (WHEN MIN. R.F.=1)  AT K=   3, I=   2, J=  31


 TOTAL NUMBER OF POINT SOURCES/SINKS PRESENT IN THE FLOW MODEL =   240

 MAXIMUM STEPSIZE WHICH MEETS STABILITY CRITERION OF THE SINK & SOURCE TERM
 = 0.1000E+31(WHEN MIN. R.F.=1)  AT K=   0, I=   0, J=   0

 MAXIMUM STEPSIZE WHICH MEETS STABILITY CRITERION OF THE DISPERSION TERM
 = 0.7273E-02(WHEN MIN. R.F.=1)  AT K=   3, I=   2, J=  30
     1 CALLS TO GCG PACKAGE FOR TRANSPORT TIME STEP   2 IN FLOW TIME STEP 100 STRESS PERIOD   2
    10 TOTAL ITERATIONS
 
 SOLVING FOR HEAD 
 FLOW MODEL IS TRANSIENT
 FLOW MODEL CONTAINS CONSTANT-HEAD CELLS


 MAXIMUM STEPSIZE DURING WHICH ANY PARTICLE CANNOT MOVE MORE THAN ONE CELL
 = 0.1698    (WHEN MIN. R.F.=1)  AT K=   3, I=   2, J=  30

 MAXIMUM STEPSIZE WHICH MEETS STABILITY CRITERION OF THE ADVECTION TERM
 (FOR PURE FINITE-DIFFERENCE OPTION, MIXELM=0) 
 = 0.1346    (WHEN MIN. R.F.=1)  AT K=   3, I=   2, J=  31


 TOTAL NUMBER OF POINT SOURCES/SINKS PRESENT IN THE FLOW MODEL =   240

 MAXIMUM STEPSIZE WHICH MEETS STABILITY CRITERION OF THE SINK & SOURCE TERM
 = 0.1000E+31(WHEN MIN. R.F.=1)  AT K=   0, I=   0, J=   0

 MAXIMUM STEPSIZE WHICH MEETS STABILITY CRITERION OF THE DISPERSION TERM
 = 0.7273E-02(WHEN MIN. R.F.=1)  AT K=   3, I=   2, J=  30
     1 CALLS TO GCG PACKAGE FOR TRANSPORT TIME STEP   3 IN FLOW TIME STEP 100 STRESS PERIOD   2
    10 TOTAL ITERATIONS
 
 SOLVING FOR HEAD 
 FLOW MODEL IS TRANSIENT
 FLOW MODEL CONTAINS CONSTANT-HEAD CELLS


 MAXIMUM STEPSIZE DURING WHICH ANY PARTICLE CANNOT MOVE MORE THAN ONE CELL
 = 0.1698    (WHEN MIN. R.F.=1)  AT K=   3, I=   2, J=  30

 MAXIMUM STEPSIZE WHICH MEETS STABILITY CRITERION OF THE ADVECTION TERM
 (FOR PURE FINITE-DIFFERENCE OPTION, MIXELM=0) 
 = 0.1346    (WHEN MIN. R.F.=1)  AT K=   3, I=   2, J=  31


 TOTAL NUMBER OF POINT SOURCES/SINKS PRESENT IN THE FLOW MODEL =   240

 MAXIMUM STEPSIZE WHICH MEETS STABILITY CRITERION OF THE SINK & SOURCE TERM
 = 0.1000E+31(WHEN MIN. R.F.=1)  AT K=   0, I=   0, J=   0

 MAXIMUM STEPSIZE WHICH MEETS STABILITY CRITERION OF THE DISPERSION TERM
 = 0.7273E-02(WHEN MIN. R.F.=1)  AT K=   3, I=   2, J=  30
     1 CALLS TO GCG PACKAGE FOR TRANSPORT TIME STEP   4 IN FLOW TIME STEP 100 STRESS PERIOD   2
    10 TOTAL ITERATIONS
 
 SOLVING FOR HEAD 
 FLOW MODEL IS TRANSIENT
 FLOW MODEL CONTAINS CONSTANT-HEAD CELLS


 MAXIMUM STEPSIZE DURING WHICH ANY PARTICLE CANNOT MOVE MORE THAN ONE CELL
 = 0.1698    (WHEN MIN. R.F.=1)  AT K=   3, I=   2, J=  30

 MAXIMUM STEPSIZE WHICH MEETS STABILITY CRITERION OF THE ADVECTION TERM
 (FOR PURE FINITE-DIFFERENCE OPTION, MIXELM=0) 
 = 0.1346    (WHEN MIN. R.F.=1)  AT K=   3, I=   2, J=  31


 TOTAL NUMBER OF POINT SOURCES/SINKS PRESENT IN THE FLOW MODEL =   240

 MAXIMUM STEPSIZE WHICH MEETS STABILITY CRITERION OF THE SINK & SOURCE TERM
 = 0.1000E+31(WHEN MIN. R.F.=1)  AT K=   0, I=   0, J=   0

 MAXIMUM STEPSIZE WHICH MEETS STABILITY CRITERION OF THE DISPERSION TERM
 = 0.7273E-02(WHEN MIN. R.F.=1)  AT K=   3, I=   2, J=  30
     1 CALLS TO GCG PACKAGE FOR TRANSPORT TIME STEP   5 IN FLOW TIME STEP 100 STRESS PERIOD   2
    10 TOTAL ITERATIONS
 
 SOLVING FOR HEAD 
 FLOW MODEL IS TRANSIENT
 FLOW MODEL CONTAINS CONSTANT-HEAD CELLS


 MAXIMUM STEPSIZE DURING WHICH ANY PARTICLE CANNOT MOVE MORE THAN ONE CELL
 = 0.1698    (WHEN MIN. R.F.=1)  AT K=   3, I=   2, J=  30

 MAXIMUM STEPSIZE WHICH MEETS STABILITY CRITERION OF THE ADVECTION TERM
 (FOR PURE FINITE-DIFFERENCE OPTION, MIXELM=0) 
 = 0.1346    (WHEN MIN. R.F.=1)  AT K=   3, I=   2, J=  31


 TOTAL NUMBER OF POINT SOURCES/SINKS PRESENT IN THE FLOW MODEL =   240

 MAXIMUM STEPSIZE WHICH MEETS STABILITY CRITERION OF THE SINK & SOURCE TERM
 = 0.1000E+31(WHEN MIN. R.F.=1)  AT K=   0, I=   0, J=   0

 MAXIMUM STEPSIZE WHICH MEETS STABILITY CRITERION OF THE DISPERSION TERM
 = 0.7273E-02(WHEN MIN. R.F.=1)  AT K=   3, I=   2, J=  30
     1 CALLS TO GCG PACKAGE FOR TRANSPORT TIME STEP   6 IN FLOW TIME STEP 100 STRESS PERIOD   2
    10 TOTAL ITERATIONS
 
 SOLVING FOR HEAD 
 FLOW MODEL IS TRANSIENT
 FLOW MODEL CONTAINS CONSTANT-HEAD CELLS


 MAXIMUM STEPSIZE DURING WHICH ANY PARTICLE CANNOT MOVE MORE THAN ONE CELL
 = 0.1698    (WHEN MIN. R.F.=1)  AT K=   3, I=   2, J=  30

 MAXIMUM STEPSIZE WHICH MEETS STABILITY CRITERION OF THE ADVECTION TERM
 (FOR PURE FINITE-DIFFERENCE OPTION, MIXELM=0) 
 = 0.1346    (WHEN MIN. R.F.=1)  AT K=   3, I=   2, J=  31


 TOTAL NUMBER OF POINT SOURCES/SINKS PRESENT IN THE FLOW MODEL =   240

 MAXIMUM STEPSIZE WHICH MEETS STABILITY CRITERION OF THE SINK & SOURCE TERM
 = 0.1000E+31(WHEN MIN. R.F.=1)  AT K=   0, I=   0, J=   0

 MAXIMUM STEPSIZE WHICH MEETS STABILITY CRITERION OF THE DISPERSION TERM
 = 0.7273E-02(WHEN MIN. R.F.=1)  AT K=   3, I=   2, J=  30
     1 CALLS TO GCG PACKAGE FOR TRANSPORT TIME STEP   7 IN FLOW TIME STEP 100 STRESS PERIOD   2
    10 TOTAL ITERATIONS
 
 SOLVING FOR HEAD 
 FLOW MODEL IS TRANSIENT
 FLOW MODEL CONTAINS CONSTANT-HEAD CELLS


 MAXIMUM STEPSIZE DURING WHICH ANY PARTICLE CANNOT MOVE MORE THAN ONE CELL
 = 0.1698    (WHEN MIN. R.F.=1)  AT K=   3, I=   2, J=  30

 MAXIMUM STEPSIZE WHICH MEETS STABILITY CRITERION OF THE ADVECTION TERM
 (FOR PURE FINITE-DIFFERENCE OPTION, MIXELM=0) 
 = 0.1346    (WHEN MIN. R.F.=1)  AT K=   3, I=   2, J=  31


 TOTAL NUMBER OF POINT SOURCES/SINKS PRESENT IN THE FLOW MODEL =   240

 MAXIMUM STEPSIZE WHICH MEETS STABILITY CRITERION OF THE SINK & SOURCE TERM
 = 0.1000E+31(WHEN MIN. R.F.=1)  AT K=   0, I=   0, J=   0

 MAXIMUM STEPSIZE WHICH MEETS STABILITY CRITERION OF THE DISPERSION TERM
 = 0.7273E-02(WHEN MIN. R.F.=1)  AT K=   3, I=   2, J=  30
     1 CALLS TO GCG PACKAGE FOR TRANSPORT TIME STEP   8 IN FLOW TIME STEP 100 STRESS PERIOD   2
     9 TOTAL ITERATIONS
  MAXIMUM CONCENTRATION CHANGES FOR EACH ITERATION:
  MAX. CHANGE LAYER,ROW,COL MAX. CHANGE LAYER,ROW,COL MAX. CHANGE LAYER,ROW,COL MAX. CHANGE LAYER,ROW,COL MAX. CHANGE LAYER,ROW,COL
 ------------------------------------------------------------------------------------------------------------------------------------
   0.6181E-03 ( 14,  1, 59)  0.3775E-04 (  9,  1, 57)  0.1046E-04 (  5,  2, 62)  0.3911E-05 (  5,  2, 59)  0.1161E-05 (  6,  1, 62)
   0.5499E-06 (  7,  1, 59)  0.1944E-06 (  3,  2, 30)  0.1309E-06 (  7,  1, 59)  0.7128E-07 (  4,  2, 59)



 >>>>>>>>>>>>>>>>>>>>>>>>>>>>>>>>>>>>>>>>>>>>>>>>>>>>>>>FOR COMPONENT NO. 01<<<<<<<<<<<<<<<<<<<<<<<<<<<<<<<<<<<<<<<<<<<<<<<<<<<<<<<


                                            -------------------------------------------
                                                      TRANSPORT STEP NO.    8
                                            -------------------------------------------

 TOTAL ELAPSED TIME SINCE BEGINNING OF SIMULATION =   101.0000    D   
 .....................................................................

                     CUMULATIVE MASS BUDGETS AT END OF TRANSPORT STEP    8, TIME STEP  100, STRESS PERIOD    2
                     ------------------------------------------------------------------------------------------

                                                             IN                           OUT
                                                      ----------------             ----------------
                               CONSTANT CONCENTRATION:    47492.50                   -30506.49    
                                        CONSTANT HEAD:    0.000000                    0.000000    
                               MASS STOR (FLOW MODEL):   0.4403675E-01              -0.1144816E-01
                                MASS STORAGE (SOLUTE):    35.77288                   -17021.80    
                            ---------------------------------------------------------------------------
                                              [TOTAL]:    47528.32     KG            -47528.30     KG  

                                                          NET (IN - OUT):   0.2302367E-01
                                                   DISCREPANCY (PERCENT):   0.4844202E-04
1
  MASS BUDGET FOR ENTIRE MODEL AT END OF TIME STEP100 IN STRESS PERIOD   2
  ------------------------------------------------------------------------------

     CUMULATIVE MASS      M       RATES FOR THIS TIME STEP      M/T
     ------------------                 ------------------------

           IN:                                      IN:
           ---                                      ---
             STORAGE =          18.6868               STORAGE =       1.9107E-03
       CONSTANT HEAD =     1056660.2419         CONSTANT HEAD =       10508.8381
                DCDT =          25.5393                  DCDT =           0.1326

            TOTAL IN =     1056704.4679              TOTAL IN =       10508.9726

          OUT:                                     OUT:
          ----                                     ----
             STORAGE =           2.2043               STORAGE =       2.6452E-03
       CONSTANT HEAD =     1045277.2221         CONSTANT HEAD =       10485.8017
                DCDT =       11425.0341                  DCDT =          23.1682

           TOTAL OUT =     1056704.4605             TOTAL OUT =       10508.9726

            IN - OUT =       7.4296E-03              IN - OUT =       2.2475E-05

 PERCENT DISCREPANCY =           0.00     PERCENT DISCREPANCY =           0.00



0


          TIME SUMMARY AT END OF TRANSPORT STEP    8 IN TIME STEP  100 IN STRESS PERIOD   2
                    SECONDS     MINUTES      HOURS       DAYS        YEARS
                    -----------------------------------------------------------
  TRANS STEP LENGTH  9389.4      156.49      2.6082     0.10867     2.97533E-04
   TIME STEP LENGTH  86400.      1440.0      24.000     1.00000     2.73785E-03
 STRESS PERIOD TIME 8.64000E+06 1.44000E+05  2400.0     100.000     0.27379    
         TOTAL TIME 8.72640E+06 1.45440E+05  2424.0      101.00     0.27652    
1
